3fy1
 OpenBabel12182002483D

 52 55  0  0  1  0  0  0  0  0999 V2000
   -0.0980   49.5590   66.5500 C   0  0  2  0  0  3  0  0  0  0  0  0
    0.9860   48.9740   65.8180 O   0  0  0  0  0  0  0  0  0  0  0  0
    0.7920   48.9320   64.4060 C   0  0  1  0  0  3  0  0  0  0  0  0
    0.7130   50.4210   63.9230 C   0  0  2  0  0  3  0  0  0  0  0  0
   -0.5390   51.1510   64.6130 C   0  0  2  0  0  3  0  0  0  0  0  0
   -0.3560   51.0420   66.1490 C   0  0  1  0  0  3  0  0  0  0  0  0
   -1.5760   51.4050   66.9230 N   0  0  0  0  0  0  0  0  0  0  0  0
   -2.4460   50.9320   66.7230 H   0  0  0  0  0  0  0  0  0  0  0  0
   -1.5470   52.3280   67.8610 C   0  0  0  0  0  0  0  0  0  0  0  0
   -0.5200   52.9520   68.1380 O   0  0  0  0  0  0  0  0  0  0  0  0
   -2.8550   52.5940   68.5950 C   0  0  0  0  0  1  0  0  0  0  0  0
   -1.7650   50.5360   64.2170 O   0  0  0  0  0  0  0  0  0  0  0  0
   -1.8680   50.6090   63.2650 H   0  0  0  0  0  0  0  0  0  0  0  0
    0.6700   50.4310   62.5090 O   0  0  0  0  0  0  0  0  0  0  0  0
    1.2380   51.5650   61.8910 C   0  0  2  0  0  3  0  0  0  0  0  0
    0.0780   52.4230   61.7050 O   0  0  0  0  0  0  0  0  0  0  0  0
    0.3920   53.6480   60.9610 C   0  0  1  0  0  3  0  0  0  0  0  0
    0.7270   53.1330   59.4940 C   0  0  2  0  0  3  0  0  0  0  0  0
    2.0200   52.2860   59.5380 C   0  0  2  0  0  3  0  0  0  0  0  0
    1.8330   51.1340   60.5210 C   0  0  1  0  0  3  0  0  0  0  0  0
    3.0890   50.4410   60.7820 N   0  0  0  0  0  0  0  0  0  0  0  0
    3.8680   51.0130   61.0750 H   0  0  0  0  0  0  0  0  0  0  0  0
    3.3150   49.1500   60.6760 C   0  0  0  0  0  0  0  0  0  0  0  0
    2.4860   48.3320   60.3460 O   0  0  0  0  0  0  0  0  0  0  0  0
    4.7500   48.7660   61.0300 C   0  0  0  0  0  1  0  0  0  0  0  0
    3.1140   53.0770   59.9670 O   0  0  0  0  0  0  0  0  0  0  0  0
    3.2420   53.8060   59.3550 H   0  0  0  0  0  0  0  0  0  0  0  0
    0.9440   54.1890   58.5970 O   0  0  0  0  0  0  0  0  0  0  0  0
    0.1560   54.7350   58.5480 H   0  0  0  0  0  0  0  0  0  0  0  0
   -0.8480   54.6040   61.0230 C   0  0  0  0  0  2  0  0  0  0  0  0
   -1.9550   54.1590   60.1980 O   0  0  0  0  0  0  0  0  0  0  0  0
   -2.9240   53.4480   60.8100 C   0  0  0  0  0  1  0  0  0  0  0  0
    1.9760   48.1720   63.8220 C   0  0  0  0  0  2  0  0  0  0  0  0
    1.9690   46.8350   64.3950 O   0  0  0  0  0  0  0  0  0  0  0  0
    2.2360   46.1990   63.7270 H   0  0  0  0  0  0  0  0  0  0  0  0
    0.2330   49.5540   67.9210 O   0  0  0  0  0  0  0  0  0  0  0  0
    0.2030   48.3100   68.5980 C   0  0  2  0  0  3  0  0  0  0  0  0
    0.2500   48.6350   70.0890 C   0  0  2  0  0  3  0  0  0  0  0  0
    0.6130   47.3110   70.7700 C   0  0  2  0  0  3  0  0  0  0  0  0
    1.5760   47.4660   71.8410 O   0  0  0  0  0  0  0  0  0  0  0  0
    2.7150   46.7760   71.4920 C   0  0  0  0  0  0  0  0  0  0  0  0
    3.8330   46.8230   72.2570 N   0  0  0  0  0  0  0  0  0  0  0  0
    3.7610   47.3140   73.6570 C   0  0  0  0  0  1  0  0  0  0  0  0
    5.0820   46.1160   71.8870 C   0  0  0  0  0  1  0  0  0  0  0  0
    2.6510   46.2430   70.2670 N   0  0  0  0  0  0  0  0  0  0  0  0
    1.3710   46.5090   69.6920 C   0  0  2  0  0  3  0  0  0  0  0  0
    1.4920   47.4730   68.5120 C   0  0  1  0  0  3  0  0  0  0  0  0
    1.5270   46.6780   67.3260 O   0  0  0  0  0  0  0  0  0  0  0  0
    1.2990   47.2220   66.5690 H   0  0  0  0  0  0  0  0  0  0  0  0
   -1.0900   49.2500   70.6530 C   0  0  0  0  0  2  0  0  0  0  0  0
   -2.2020   48.3610   70.3700 O   0  0  0  0  0  0  0  0  0  0  0  0
   -3.0130   48.7420   70.7160 H   0  0  0  0  0  0  0  0  0  0  0  0
  1 36  1  1  0  0  0
  2  1  1  0  0  0  0
  3 33  1  6  0  0  0
  3  2  1  0  0  0  0
  4 14  1  6  0  0  0
  4  3  1  0  0  0  0
  4  5  1  0  0  0  0
  5 12  1  6  0  0  0
  5  6  1  0  0  0  0
  6  1  1  0  0  0  0
  6  7  1  1  0  0  0
  7  9  1  0  0  0  0
  8  7  1  0  0  0  0
  9 10  2  0  0  0  0
  9 11  1  0  0  0  0
 13 12  1  0  0  0  0
 15 14  1  6  0  0  0
 16 15  1  0  0  0  0
 17 30  1  6  0  0  0
 17 16  1  0  0  0  0
 18 28  1  6  0  0  0
 18 19  1  0  0  0  0
 18 17  1  0  0  0  0
 19 26  1  1  0  0  0
 19 20  1  0  0  0  0
 20 21  1  1  0  0  0
 20 15  1  0  0  0  0
 21 22  1  0  0  0  0
 23 21  1  0  0  0  0
 23 25  1  0  0  0  0
 24 23  2  0  0  0  0
 27 26  1  0  0  0  0
 29 28  1  0  0  0  0
 31 32  1  0  0  0  0
 31 30  1  0  0  0  0
 33 34  1  0  0  0  0
 35 34  1  0  0  0  0
 37 36  1  6  0  0  0
 37 38  1  0  0  0  0
 38 50  1  1  0  0  0
 38 39  1  0  0  0  0
 39 40  1  1  0  0  0
 41 40  1  0  0  0  0
 41 42  1  0  0  0  0
 42 43  1  0  0  0  0
 44 42  1  0  0  0  0
 45 41  2  0  0  0  0
 46 45  1  1  0  0  0
 46 39  1  0  0  0  0
 47 48  1  6  0  0  0
 47 37  1  0  0  0  0
 47 46  1  0  0  0  0
 49 48  1  0  0  0  0
 51 50  1  0  0  0  0
 51 52  1  0  0  0  0
M  END
>  <REMARK>
  Name = 3fy1
  21 active torsions:
  status: ('A' for Active; 'I' for Inactive)
    1  A    between atoms: C1_1  and  O4_71
    2  A    between atoms: C2_2  and  N2_9
    3  A    between atoms: C3_3  and  O3_10
    4  A    between atoms: C4_4  and  O4_11
    5  A    between atoms: C5_5  and  C6_6
    6  A    between atoms: C6_6  and  O6_13
    7  A    between atoms: C7_7  and  C8_8
    8  A    between atoms: O4_11  and  C1_28
    9  A    between atoms: C2_29  and  N2_36
   10  A    between atoms: C3_30  and  O3_37
   11  A    between atoms: C4_31  and  O4_38
   12  A    between atoms: C5_32  and  C6_33
   13  A    between atoms: C6_33  and  O6_40
   14  A    between atoms: C7_34  and  C8_35
   15  A    between atoms: O6_40  and  C9_41
   16  A    between atoms: C3_61  and  O3_70
   17  A    between atoms: C4_62  and  O4_71
   18  A    between atoms: C5_63  and  C6_64
   19  A    between atoms: C6_64  and  O6_72
   20  A    between atoms: C8_66  and  N7_69
   21  A    between atoms: C9_67  and  N7_69
                            x       y       z     vdW  Elec       q    Type
                         _______ _______ _______ _____ _____    ______ ____

>  <TORSDO>
F 16

>  <rfscore_v2>
6.2200394662559635

>  <vina_affinity>
-7.901062645089927

>  <vina_gauss1>
146.51781590849657

>  <vina_gauss2>
1993.4920249222996

>  <vina_repulsion>
5.929899306423508

>  <vina_hydrophobic>
19.881035616558144

>  <vina_hydrogen>
4.5837457563779

>  <vina_intra_gauss1>
69.91141998729961

>  <vina_intra_gauss2>
565.1113324213336

>  <vina_intra_repulsion>
2.449568980048462

>  <vina_intra_hydrophobic>
0.10299909962060738

>  <vina_intra_hydrogen>
3.2004551697509283

>  <vina_num_rotors>
13.0

>  <rfscore_v3>
6.38886236774337

>  <PLEClinear_p5_l1_s65536>
4.696706654836784

>  <nnscore>
6.09270570591433

$$$$
