CHEMBL4075848-134
 OpenBabel12202021063D

 28 30  0  0  1  0  0  0  0  0999 V2000
   -0.9620   49.9630   67.6810 C   0  0  2  0  0  3  0  0  0  0  0  0
   -0.2660   48.9690   68.6470 C   0  0  0  0  0  2  0  0  0  0  0  0
   -0.5470   47.5240   68.2510 C   0  0  0  0  0  2  0  0  0  0  0  0
   -1.9730   47.2920   68.4480 N   0  0  2  0  0  0  0  0  0  0  0  0
   -2.3490   46.2260   69.2020 C   0  0  1  0  0  3  0  0  0  0  0  0
   -1.5860   45.4440   69.9350 N   0  0  0  0  0  0  0  0  0  0  0  0
   -2.4600   44.5640   70.4950 C   0  0  0  0  0  0  0  0  0  0  0  0
   -1.9920   43.6470   71.3370 N   0  0  0  0  0  0  0  0  0  0  0  0
   -3.7350   44.7470   70.1750 N   0  0  0  0  0  2  0  0  0  0  0  0
   -3.6410   45.7890   69.3320 N   0  0  0  0  0  0  0  0  0  0  0  0
   -2.8680   48.1960   67.7300 C   0  0  0  0  0  2  0  0  0  0  0  0
   -2.4690   49.6670   67.9720 C   0  0  0  0  0  2  0  0  0  0  0  0
   -1.0730   43.8210   71.7240 H   0  0  0  0  0  0  0  0  0  0  0  0
   -2.6570   43.2360   71.9740 H   0  0  0  0  0  0  0  0  0  0  0  0
   -4.4750   46.1410   68.8860 H   0  0  0  0  0  0  0  0  0  0  0  0
   -0.6060   49.9410   66.2140 N   0  0  0  0  0  0  0  0  0  0  0  0
   -0.1410   52.2920   65.2340 C   0  0  0  0  0  1  0  0  0  0  0  0
   -1.1430   51.1470   65.4770 C   0  0  0  0  0  3  0  0  0  0  0  0
   -1.8320   50.8050   64.1410 C   0  0  0  0  0  1  0  0  0  0  0  0
    0.8420   49.7500   65.8690 C   0  0  0  0  0  2  0  0  0  0  0  0
    1.2400   48.6510   64.8680 C   0  0  0  0  0  2  0  0  0  0  0  0
    2.0510   49.0190   63.6460 C   0  0  0  0  0  0  0  0  0  0  0  0
    1.7000   50.2040   62.9630 C   0  0  0  0  0  3  0  0  0  0  0  0
    2.4210   50.6440   61.8600 C   0  0  0  0  0  3  0  0  0  0  0  0
    3.5250   49.9120   61.4380 C   0  0  0  0  0  0  0  0  0  0  0  0
    4.4390   50.4570   60.0900 Cl  0  0  0  0  0  0  0  0  0  0  0  0
    3.8920   48.7440   62.1060 C   0  0  0  0  0  3  0  0  0  0  0  0
    3.1650   48.2980   63.2150 C   0  0  0  0  0  3  0  0  0  0  0  0
  1 16  1  6  0  0  0
  1 12  1  0  0  0  0
  1  2  1  0  0  0  0
  3  2  1  0  0  0  0
  4  3  1  6  0  0  0
  4 11  1  0  0  0  0
  4  5  1  0  0  0  0
  5 10  1  0  0  0  0
  5  6  1  1  0  0  0
  6  7  2  0  0  0  0
  7  8  1  0  0  0  0
  8 13  1  0  0  0  0
  8 14  1  0  0  0  0
  9  7  1  0  0  0  0
 10  9  1  0  0  0  0
 11 12  1  0  0  0  0
 15 10  1  0  0  0  0
 17 18  1  0  0  0  0
 18 16  1  0  0  0  0
 19 18  1  0  0  0  0
 20 16  1  0  0  0  0
 21 20  1  0  0  0  0
 22 21  1  0  0  0  0
 23 22  2  0  0  0  0
 24 23  1  0  0  0  0
 25 24  2  0  0  0  0
 25 27  1  0  0  0  0
 26 25  1  0  0  0  0
 27 28  2  0  0  0  0
 28 22  1  0  0  0  0
M  END
>  <MODEL>
1

>  <REMARK>
 VINA RESULT:      -8.3      0.000      0.000
  Name = CHEMBL4075848-134
  7 active torsions:
  status: ('A' for Active; 'I' for Inactive)
    1  A    between atoms: C_1  and  C_2
    2  A    between atoms: C_2  and  C_3
    3  A    between atoms: C_2  and  N_4
    4  A    between atoms: N_4  and  C_5
    5  A    between atoms: N_4  and  C_14
    6  A    between atoms: C_5  and  C_6
    7  A    between atoms: C_6  and  C_7
                            x       y       z     vdW  Elec       q    Type
                         _______ _______ _______ _____ _____    ______ ____

>  <TORSDO>
F 5

>  <rfscore_v2>
7.11288995920746

>  <vina_affinity>
-8.119792164954738

>  <vina_gauss1>
74.92232074185479

>  <vina_gauss2>
1231.317527714231

>  <vina_repulsion>
1.1633745406478315

>  <vina_hydrophobic>
46.840423713110205

>  <vina_hydrogen>
1.3750154235137075

>  <vina_intra_gauss1>
30.628673202084546

>  <vina_intra_gauss2>
163.93962996475193

>  <vina_intra_repulsion>
0.21900059562606145

>  <vina_intra_hydrophobic>
23.670784127157972

>  <vina_intra_hydrogen>
0.0

>  <vina_num_rotors>
5.0

>  <rfscore_v3>
6.992623042346548

>  <PLEClinear_p5_l1_s65536>
2.038031539878051

>  <nnscore>
6.449029899409773

$$$$
CHEMBL4075848-134
 OpenBabel12202021063D

 28 30  0  0  1  0  0  0  0  0999 V2000
   -1.6250   49.6180   69.3070 C   0  0  2  0  0  3  0  0  0  0  0  0
   -3.1460   49.7240   69.0180 C   0  0  0  0  0  2  0  0  0  0  0  0
   -3.4750   49.2560   67.6060 C   0  0  0  0  0  2  0  0  0  0  0  0
   -2.8590   50.2020   66.6830 N   0  0  2  0  0  0  0  0  0  0  0  0
   -3.6410   50.7640   65.7260 C   0  0  1  0  0  3  0  0  0  0  0  0
   -4.9500   50.6980   65.6100 N   0  0  0  0  0  0  0  0  0  0  0  0
   -5.2200   51.4490   64.5070 C   0  0  0  0  0  0  0  0  0  0  0  0
   -6.4880   51.6120   64.1390 N   0  0  0  0  0  0  0  0  0  0  0  0
   -4.1640   52.0010   63.9220 N   0  0  0  0  0  2  0  0  0  0  0  0
   -3.1690   51.5330   64.6940 N   0  0  0  0  0  0  0  0  0  0  0  0
   -1.4160   50.3860   66.8320 C   0  0  0  0  0  2  0  0  0  0  0  0
   -1.0510   50.6710   68.3040 C   0  0  0  0  0  2  0  0  0  0  0  0
   -7.1880   51.4050   64.8400 H   0  0  0  0  0  0  0  0  0  0  0  0
   -6.6900   52.4050   63.5500 H   0  0  0  0  0  0  0  0  0  0  0  0
   -2.2140   51.7630   64.4640 H   0  0  0  0  0  0  0  0  0  0  0  0
   -0.9510   48.2700   69.2340 N   0  0  0  0  0  0  0  0  0  0  0  0
    0.9050   47.9700   71.0140 C   0  0  0  0  0  1  0  0  0  0  0  0
    0.5210   48.3480   69.5710 C   0  0  0  0  0  3  0  0  0  0  0  0
    1.4250   47.5640   68.6000 C   0  0  0  0  0  1  0  0  0  0  0  0
   -1.5810   47.1510   70.0100 C   0  0  0  0  0  2  0  0  0  0  0  0
   -1.9130   45.8310   69.2940 C   0  0  0  0  0  2  0  0  0  0  0  0
   -3.3560   45.3940   69.1750 C   0  0  0  0  0  0  0  0  0  0  0  0
   -3.8590   44.5270   70.1720 C   0  0  0  0  0  3  0  0  0  0  0  0
   -5.1860   44.1150   70.1690 C   0  0  0  0  0  3  0  0  0  0  0  0
   -6.0380   44.5850   69.1770 C   0  0  0  0  0  0  0  0  0  0  0  0
   -7.6860   44.1010   69.1760 Cl  0  0  0  0  0  0  0  0  0  0  0  0
   -5.5620   45.4490   68.1910 C   0  0  0  0  0  3  0  0  0  0  0  0
   -4.2260   45.8630   68.1900 C   0  0  0  0  0  3  0  0  0  0  0  0
  1 16  1  6  0  0  0
  2  1  1  0  0  0  0
  3  2  1  0  0  0  0
  4 11  1  6  0  0  0
  4  3  1  0  0  0  0
  5  6  1  1  0  0  0
  5  4  1  0  0  0  0
  7  6  2  0  0  0  0
  8  7  1  0  0  0  0
  8 13  1  0  0  0  0
  9  7  1  0  0  0  0
  9 10  1  0  0  0  0
 10  5  1  0  0  0  0
 11 12  1  0  0  0  0
 12  1  1  0  0  0  0
 14  8  1  0  0  0  0
 15 10  1  0  0  0  0
 16 18  1  0  0  0  0
 16 20  1  0  0  0  0
 18 17  1  0  0  0  0
 19 18  1  0  0  0  0
 21 20  1  0  0  0  0
 22 21  1  0  0  0  0
 22 23  1  0  0  0  0
 24 23  2  0  0  0  0
 25 24  1  0  0  0  0
 26 25  1  0  0  0  0
 27 25  2  0  0  0  0
 28 27  1  0  0  0  0
 28 22  2  0  0  0  0
M  END
>  <MODEL>
2

>  <REMARK>
 VINA RESULT:      -8.3      4.982      8.350
  Name = CHEMBL4075848-134
  7 active torsions:
  status: ('A' for Active; 'I' for Inactive)
    1  A    between atoms: C_1  and  C_2
    2  A    between atoms: C_2  and  C_3
    3  A    between atoms: C_2  and  N_4
    4  A    between atoms: N_4  and  C_5
    5  A    between atoms: N_4  and  C_14
    6  A    between atoms: C_5  and  C_6
    7  A    between atoms: C_6  and  C_7
                            x       y       z     vdW  Elec       q    Type
                         _______ _______ _______ _____ _____    ______ ____

>  <TORSDO>
F 5

>  <rfscore_v2>
7.1196824301809265

>  <vina_affinity>
-8.020705837485137

>  <vina_gauss1>
77.8404398163099

>  <vina_gauss2>
1156.8670147016815

>  <vina_repulsion>
1.0154418368954838

>  <vina_hydrophobic>
57.02501550331219

>  <vina_hydrogen>
0.8136319258163199

>  <vina_intra_gauss1>
27.823844878835153

>  <vina_intra_gauss2>
206.16909546950433

>  <vina_intra_repulsion>
0.16714029400567343

>  <vina_intra_hydrophobic>
17.898512121026613

>  <vina_intra_hydrogen>
0.0

>  <vina_num_rotors>
5.0

>  <rfscore_v3>
6.714229007992006

>  <PLEClinear_p5_l1_s65536>
1.0445270179602675

>  <nnscore>
6.8471007449070616

$$$$
CHEMBL4075848-134
 OpenBabel12202021063D

 28 30  0  0  1  0  0  0  0  0999 V2000
   -1.7160   50.0320   67.8740 C   0  0  2  0  0  3  0  0  0  0  0  0
   -0.3510   49.3700   67.5500 C   0  0  0  0  0  2  0  0  0  0  0  0
   -0.1770   48.0590   68.3070 C   0  0  0  0  0  2  0  0  0  0  0  0
   -0.0980   48.3880   69.7260 N   0  0  2  0  0  0  0  0  0  0  0  0
    0.9570   47.9100   70.4350 C   0  0  1  0  0  3  0  0  0  0  0  0
    2.0350   47.3120   69.9770 N   0  0  0  0  0  0  0  0  0  0  0  0
    2.7740   47.0670   71.0940 C   0  0  0  0  0  0  0  0  0  0  0  0
    3.9650   46.4900   70.9590 N   0  0  0  0  0  0  0  0  0  0  0  0
    2.2390   47.4870   72.2330 N   0  0  0  0  0  2  0  0  0  0  0  0
    1.0740   47.9940   71.7980 N   0  0  0  0  0  0  0  0  0  0  0  0
   -1.2300   49.1380   70.2670 C   0  0  0  0  0  2  0  0  0  0  0  0
   -1.5380   50.3710   69.3900 C   0  0  0  0  0  2  0  0  0  0  0  0
    4.3720   46.5150   70.0320 H   0  0  0  0  0  0  0  0  0  0  0  0
    4.6170   46.6130   71.7190 H   0  0  0  0  0  0  0  0  0  0  0  0
    0.4160   48.3680   72.4670 H   0  0  0  0  0  0  0  0  0  0  0  0
   -2.9910   49.2890   67.5580 N   0  0  0  0  0  0  0  0  0  0  0  0
   -4.6300   50.7440   66.1800 C   0  0  0  0  0  1  0  0  0  0  0  0
   -4.1970   50.2000   67.5550 C   0  0  0  0  0  3  0  0  0  0  0  0
   -5.4330   49.6020   68.2570 C   0  0  0  0  0  1  0  0  0  0  0  0
   -2.9980   48.4480   66.3150 C   0  0  0  0  0  2  0  0  0  0  0  0
   -3.9720   47.2620   66.2140 C   0  0  0  0  0  2  0  0  0  0  0  0
   -4.2330   46.4100   67.4360 C   0  0  0  0  0  0  0  0  0  0  0  0
   -5.5220   45.8470   67.5750 C   0  0  0  0  0  3  0  0  0  0  0  0
   -5.8350   45.0120   68.6400 C   0  0  0  0  0  3  0  0  0  0  0  0
   -4.8510   44.7080   69.5730 C   0  0  0  0  0  0  0  0  0  0  0  0
   -5.2190   43.6580   70.8820 Cl  0  0  0  0  0  0  0  0  0  0  0  0
   -3.5710   45.2470   69.4460 C   0  0  0  0  0  3  0  0  0  0  0  0
   -3.2550   46.0900   68.3760 C   0  0  0  0  0  3  0  0  0  0  0  0
  1 16  1  1  0  0  0
  1 12  1  0  0  0  0
  2  1  1  0  0  0  0
  2  3  1  0  0  0  0
  4  3  1  1  0  0  0
  4 11  1  0  0  0  0
  4  5  1  0  0  0  0
  5  6  1  6  0  0  0
  5 10  1  0  0  0  0
  6  7  2  0  0  0  0
  7  9  1  0  0  0  0
  8  7  1  0  0  0  0
  8 14  1  0  0  0  0
 10  9  1  0  0  0  0
 10 15  1  0  0  0  0
 12 11  1  0  0  0  0
 13  8  1  0  0  0  0
 17 18  1  0  0  0  0
 18 16  1  0  0  0  0
 18 19  1  0  0  0  0
 20 16  1  0  0  0  0
 21 20  1  0  0  0  0
 21 22  1  0  0  0  0
 22 23  2  0  0  0  0
 22 28  1  0  0  0  0
 23 24  1  0  0  0  0
 24 25  2  0  0  0  0
 25 26  1  0  0  0  0
 27 25  1  0  0  0  0
 28 27  2  0  0  0  0
M  END
>  <MODEL>
3

>  <REMARK>
 VINA RESULT:      -8.1      5.020      7.071
  Name = CHEMBL4075848-134
  7 active torsions:
  status: ('A' for Active; 'I' for Inactive)
    1  A    between atoms: C_1  and  C_2
    2  A    between atoms: C_2  and  C_3
    3  A    between atoms: C_2  and  N_4
    4  A    between atoms: N_4  and  C_5
    5  A    between atoms: N_4  and  C_14
    6  A    between atoms: C_5  and  C_6
    7  A    between atoms: C_6  and  C_7
                            x       y       z     vdW  Elec       q    Type
                         _______ _______ _______ _____ _____    ______ ____

>  <TORSDO>
F 5

>  <rfscore_v2>
7.337098854090352

>  <vina_affinity>
-7.825862045341201

>  <vina_gauss1>
102.69094719828519

>  <vina_gauss2>
1247.8935967995822

>  <vina_repulsion>
3.256741691751178

>  <vina_hydrophobic>
45.86375337682545

>  <vina_hydrogen>
1.952032864400548

>  <vina_intra_gauss1>
32.900544010405504

>  <vina_intra_gauss2>
206.5496280454912

>  <vina_intra_repulsion>
1.1257499458844578

>  <vina_intra_hydrophobic>
26.730606765425286

>  <vina_intra_hydrogen>
0.0

>  <vina_num_rotors>
5.0

>  <rfscore_v3>
7.500489406260412

>  <PLEClinear_p5_l1_s65536>
2.1519223441319753

>  <nnscore>
8.071839529777623

$$$$
CHEMBL4075848-134
 OpenBabel12202021063D

 28 30  0  0  1  0  0  0  0  0999 V2000
   -2.2350   44.6010   70.0180 C   0  0  2  0  0  3  0  0  0  0  0  0
   -3.7090   44.1280   69.9240 C   0  0  0  0  0  2  0  0  0  0  0  0
   -4.5750   44.7990   70.9830 C   0  0  0  0  0  2  0  0  0  0  0  0
   -4.1170   44.3190   72.2820 N   0  0  2  0  0  0  0  0  0  0  0  0
   -5.0390   43.7960   73.1310 C   0  0  1  0  0  3  0  0  0  0  0  0
   -6.2960   43.5030   72.8800 N   0  0  0  0  0  0  0  0  0  0  0  0
   -6.7550   42.9880   74.0540 C   0  0  0  0  0  0  0  0  0  0  0  0
   -8.0110   42.5550   74.1140 N   0  0  0  0  0  0  0  0  0  0  0  0
   -5.8610   42.9210   75.0320 N   0  0  0  0  0  2  0  0  0  0  0  0
   -4.7860   43.4630   74.4370 N   0  0  0  0  0  0  0  0  0  0  0  0
   -2.7010   44.5330   72.5750 C   0  0  0  0  0  2  0  0  0  0  0  0
   -1.8200   44.0280   71.4120 C   0  0  0  0  0  2  0  0  0  0  0  0
   -8.4670   42.3780   73.2280 H   0  0  0  0  0  0  0  0  0  0  0  0
   -8.2290   41.8990   74.8490 H   0  0  0  0  0  0  0  0  0  0  0  0
   -3.9350   43.5820   74.9650 H   0  0  0  0  0  0  0  0  0  0  0  0
   -1.9150   46.0650   69.8360 N   0  0  0  0  0  0  0  0  0  0  0  0
    0.3360   46.7360   68.7450 C   0  0  0  0  0  1  0  0  0  0  0  0
   -0.4420   46.3540   70.0190 C   0  0  0  0  0  3  0  0  0  0  0  0
   -0.1440   47.4030   71.1090 C   0  0  0  0  0  1  0  0  0  0  0  0
   -2.3970   46.7140   68.5720 C   0  0  0  0  0  2  0  0  0  0  0  0
   -3.5880   47.6850   68.6320 C   0  0  0  0  0  2  0  0  0  0  0  0
   -3.3300   49.1720   68.7290 C   0  0  0  0  0  0  0  0  0  0  0  0
   -2.1380   49.5860   69.3650 C   0  0  0  0  0  3  0  0  0  0  0  0
   -1.7960   50.9300   69.4550 C   0  0  0  0  0  3  0  0  0  0  0  0
   -2.6340   51.8810   68.8860 C   0  0  0  0  0  0  0  0  0  0  0  0
   -2.2100   53.5440   68.9700 Cl  0  0  0  0  0  0  0  0  0  0  0  0
   -3.8100   51.4900   68.2450 C   0  0  0  0  0  3  0  0  0  0  0  0
   -4.1570   50.1380   68.1570 C   0  0  0  0  0  3  0  0  0  0  0  0
  1 16  1  1  0  0  0
  1 12  1  0  0  0  0
  2  1  1  0  0  0  0
  2  3  1  0  0  0  0
  4  3  1  1  0  0  0
  4 11  1  0  0  0  0
  4  5  1  0  0  0  0
  5  6  1  6  0  0  0
  5 10  1  0  0  0  0
  6  7  2  0  0  0  0
  7  8  1  0  0  0  0
  7  9  1  0  0  0  0
  8 14  1  0  0  0  0
 10 15  1  0  0  0  0
 10  9  1  0  0  0  0
 12 11  1  0  0  0  0
 13  8  1  0  0  0  0
 16 18  1  0  0  0  0
 17 18  1  0  0  0  0
 18 19  1  0  0  0  0
 20 21  1  0  0  0  0
 20 16  1  0  0  0  0
 21 22  1  0  0  0  0
 22 23  1  0  0  0  0
 23 24  2  0  0  0  0
 25 26  1  0  0  0  0
 25 24  1  0  0  0  0
 27 25  2  0  0  0  0
 28 27  1  0  0  0  0
 28 22  2  0  0  0  0
M  END
>  <MODEL>
4

>  <REMARK>
 VINA RESULT:      -8.1      4.945      7.120
  Name = CHEMBL4075848-134
  7 active torsions:
  status: ('A' for Active; 'I' for Inactive)
    1  A    between atoms: C_1  and  C_2
    2  A    between atoms: C_2  and  C_3
    3  A    between atoms: C_2  and  N_4
    4  A    between atoms: N_4  and  C_5
    5  A    between atoms: N_4  and  C_14
    6  A    between atoms: C_5  and  C_6
    7  A    between atoms: C_6  and  C_7
                            x       y       z     vdW  Elec       q    Type
                         _______ _______ _______ _____ _____    ______ ____

>  <TORSDO>
F 5

>  <rfscore_v2>
7.450734016317016

>  <vina_affinity>
-8.047359180670666

>  <vina_gauss1>
99.57829025885188

>  <vina_gauss2>
1399.84606725392

>  <vina_repulsion>
2.917783231056077

>  <vina_hydrophobic>
40.361971103304164

>  <vina_hydrogen>
1.136714870754023

>  <vina_intra_gauss1>
32.8963258422619

>  <vina_intra_gauss2>
171.52587827059563

>  <vina_intra_repulsion>
0.32912513435966423

>  <vina_intra_hydrophobic>
24.279615458881317

>  <vina_intra_hydrogen>
0.0

>  <vina_num_rotors>
5.0

>  <rfscore_v3>
7.562563572760571

>  <PLEClinear_p5_l1_s65536>
3.449116585753203

>  <nnscore>
6.18281741454484

$$$$
CHEMBL4075848-134
 OpenBabel12202021063D

 28 30  0  0  1  0  0  0  0  0999 V2000
   -1.7920   49.2470   65.2330 C   0  0  2  0  0  3  0  0  0  0  0  0
   -1.2330   47.8370   64.9060 C   0  0  0  0  0  2  0  0  0  0  0  0
    0.2180   47.7000   65.3520 C   0  0  0  0  0  2  0  0  0  0  0  0
    1.0100   48.6090   64.5310 N   0  0  2  0  0  0  0  0  0  0  0  0
    2.0900   48.1050   63.8800 C   0  0  1  0  0  3  0  0  0  0  0  0
    2.4410   46.8440   63.7510 N   0  0  0  0  0  0  0  0  0  0  0  0
    3.5720   46.8950   62.9940 C   0  0  0  0  0  0  0  0  0  0  0  0
    4.1620   45.7530   62.6500 N   0  0  0  0  0  0  0  0  0  0  0  0
    3.9520   48.1100   62.6200 N   0  0  0  0  0  2  0  0  0  0  0  0
    3.0160   48.8660   63.2150 N   0  0  0  0  0  0  0  0  0  0  0  0
    0.6010   50.0110   64.5630 C   0  0  0  0  0  2  0  0  0  0  0  0
   -0.9150   50.1460   64.3020 C   0  0  0  0  0  2  0  0  0  0  0  0
    3.6000   44.9150   62.7340 H   0  0  0  0  0  0  0  0  0  0  0  0
    4.7750   45.7830   61.8500 H   0  0  0  0  0  0  0  0  0  0  0  0
    3.0680   49.8710   63.1360 H   0  0  0  0  0  0  0  0  0  0  0  0
   -1.8360   49.7110   66.6690 N   0  0  0  0  0  0  0  0  0  0  0  0
   -3.5370   51.5560   67.3050 C   0  0  0  0  0  1  0  0  0  0  0  0
   -2.1350   51.1880   66.7830 C   0  0  0  0  0  3  0  0  0  0  0  0
   -1.0870   51.9750   67.5950 C   0  0  0  0  0  1  0  0  0  0  0  0
   -2.7290   48.9480   67.6020 C   0  0  0  0  0  2  0  0  0  0  0  0
   -2.4410   48.9780   69.1130 C   0  0  0  0  0  2  0  0  0  0  0  0
   -1.1320   48.4250   69.6300 C   0  0  0  0  0  0  0  0  0  0  0  0
   -0.4810   47.4500   68.8420 C   0  0  0  0  0  3  0  0  0  0  0  0
    0.7500   46.9220   69.2150 C   0  0  0  0  0  3  0  0  0  0  0  0
    1.3580   47.3830   70.3760 C   0  0  0  0  0  0  0  0  0  0  0  0
    2.8900   46.7560   70.8370 Cl  0  0  0  0  0  0  0  0  0  0  0  0
    0.7340   48.3510   71.1620 C   0  0  0  0  0  3  0  0  0  0  0  0
   -0.5060   48.8810   70.7890 C   0  0  0  0  0  3  0  0  0  0  0  0
  1 16  1  1  0  0  0
  2  1  1  0  0  0  0
  2  3  1  0  0  0  0
  4 11  1  1  0  0  0
  4  3  1  0  0  0  0
  5  6  1  6  0  0  0
  5  4  1  0  0  0  0
  7  6  2  0  0  0  0
  8 13  1  0  0  0  0
  8  7  1  0  0  0  0
  9  7  1  0  0  0  0
  9 10  1  0  0  0  0
 10  5  1  0  0  0  0
 12 11  1  0  0  0  0
 12  1  1  0  0  0  0
 14  8  1  0  0  0  0
 15 10  1  0  0  0  0
 16 18  1  0  0  0  0
 16 20  1  0  0  0  0
 18 17  1  0  0  0  0
 18 19  1  0  0  0  0
 20 21  1  0  0  0  0
 21 22  1  0  0  0  0
 22 28  1  0  0  0  0
 23 24  1  0  0  0  0
 23 22  2  0  0  0  0
 24 25  2  0  0  0  0
 25 26  1  0  0  0  0
 25 27  1  0  0  0  0
 28 27  2  0  0  0  0
M  END
>  <MODEL>
5

>  <REMARK>
 VINA RESULT:      -8.0      3.846      7.141
  Name = CHEMBL4075848-134
  7 active torsions:
  status: ('A' for Active; 'I' for Inactive)
    1  A    between atoms: C_1  and  C_2
    2  A    between atoms: C_2  and  C_3
    3  A    between atoms: C_2  and  N_4
    4  A    between atoms: N_4  and  C_5
    5  A    between atoms: N_4  and  C_14
    6  A    between atoms: C_5  and  C_6
    7  A    between atoms: C_6  and  C_7
                            x       y       z     vdW  Elec       q    Type
                         _______ _______ _______ _____ _____    ______ ____

>  <TORSDO>
F 5

>  <rfscore_v2>
7.171941066766567

>  <vina_affinity>
-7.840070074980272

>  <vina_gauss1>
94.65711006530739

>  <vina_gauss2>
1221.3042871946109

>  <vina_repulsion>
1.4318222202336526

>  <vina_hydrophobic>
35.71785438580007

>  <vina_hydrogen>
0.6994911545443803

>  <vina_intra_gauss1>
32.0291556502831

>  <vina_intra_gauss2>
216.56162730664917

>  <vina_intra_repulsion>
0.7823919755143103

>  <vina_intra_hydrophobic>
22.722909909503493

>  <vina_intra_hydrogen>
0.0

>  <vina_num_rotors>
5.0

>  <rfscore_v3>
7.153203441447445

>  <PLEClinear_p5_l1_s65536>
3.761972347640522

>  <nnscore>
7.285072683744032

$$$$
CHEMBL4075848-134
 OpenBabel12202021063D

 28 30  0  0  1  0  0  0  0  0999 V2000
    0.0200   48.9350   68.2070 C   0  0  2  0  0  3  0  0  0  0  0  0
   -0.0580   50.0280   67.1090 C   0  0  0  0  0  2  0  0  0  0  0  0
   -0.2290   49.4110   65.7260 C   0  0  0  0  0  2  0  0  0  0  0  0
    0.9950   48.6760   65.4260 N   0  0  2  0  0  0  0  0  0  0  0  0
    1.6300   48.9410   64.2560 C   0  0  1  0  0  3  0  0  0  0  0  0
    1.3820   49.9110   63.4020 N   0  0  0  0  0  0  0  0  0  0  0  0
    2.3160   49.7380   62.4280 C   0  0  0  0  0  0  0  0  0  0  0  0
    2.3520   50.6010   61.4160 N   0  0  0  0  0  0  0  0  0  0  0  0
    3.1540   48.7260   62.6160 N   0  0  0  0  0  2  0  0  0  0  0  0
    2.6860   48.2160   63.7670 N   0  0  0  0  0  0  0  0  0  0  0  0
    1.3700   47.6480   66.3950 C   0  0  0  0  0  2  0  0  0  0  0  0
    1.3580   48.2190   67.8300 C   0  0  0  0  0  2  0  0  0  0  0  0
    1.8750   51.4820   61.5620 H   0  0  0  0  0  0  0  0  0  0  0  0
    3.2180   50.6600   60.9020 H   0  0  0  0  0  0  0  0  0  0  0  0
    3.1160   47.3890   64.1530 H   0  0  0  0  0  0  0  0  0  0  0  0
   -1.1450   47.9950   68.3990 N   0  0  0  0  0  0  0  0  0  0  0  0
   -0.7770   46.2110   70.2390 C   0  0  0  0  0  1  0  0  0  0  0  0
   -1.3250   47.5960   69.8460 C   0  0  0  0  0  3  0  0  0  0  0  0
   -0.7920   48.6380   70.8500 C   0  0  0  0  0  1  0  0  0  0  0  0
   -2.4670   48.4260   67.8330 C   0  0  0  0  0  2  0  0  0  0  0  0
   -3.2310   47.4730   66.8980 C   0  0  0  0  0  2  0  0  0  0  0  0
   -4.2840   46.5540   67.4740 C   0  0  0  0  0  0  0  0  0  0  0  0
   -5.5000   46.4290   66.7650 C   0  0  0  0  0  3  0  0  0  0  0  0
   -6.5030   45.5690   67.1950 C   0  0  0  0  0  3  0  0  0  0  0  0
   -6.2930   44.8010   68.3340 C   0  0  0  0  0  0  0  0  0  0  0  0
   -7.5170   43.7170   68.8630 Cl  0  0  0  0  0  0  0  0  0  0  0  0
   -5.0960   44.9040   69.0420 C   0  0  0  0  0  3  0  0  0  0  0  0
   -4.0860   45.7710   68.6120 C   0  0  0  0  0  3  0  0  0  0  0  0
  1 16  1  6  0  0  0
  2  1  1  0  0  0  0
  3  2  1  0  0  0  0
  4  3  1  6  0  0  0
  4 11  1  0  0  0  0
  5  6  1  1  0  0  0
  5  4  1  0  0  0  0
  7  9  1  0  0  0  0
  7  6  2  0  0  0  0
  8 13  1  0  0  0  0
  8  7  1  0  0  0  0
  9 10  1  0  0  0  0
 10 15  1  0  0  0  0
 10  5  1  0  0  0  0
 11 12  1  0  0  0  0
 12  1  1  0  0  0  0
 14  8  1  0  0  0  0
 16 18  1  0  0  0  0
 18 17  1  0  0  0  0
 18 19  1  0  0  0  0
 20 16  1  0  0  0  0
 21 22  1  0  0  0  0
 21 20  1  0  0  0  0
 22 28  1  0  0  0  0
 23 24  1  0  0  0  0
 23 22  2  0  0  0  0
 24 25  2  0  0  0  0
 25 26  1  0  0  0  0
 25 27  1  0  0  0  0
 28 27  2  0  0  0  0
M  END
>  <MODEL>
6

>  <REMARK>
 VINA RESULT:      -7.9      4.270      8.503
  Name = CHEMBL4075848-134
  7 active torsions:
  status: ('A' for Active; 'I' for Inactive)
    1  A    between atoms: C_1  and  C_2
    2  A    between atoms: C_2  and  C_3
    3  A    between atoms: C_2  and  N_4
    4  A    between atoms: N_4  and  C_5
    5  A    between atoms: N_4  and  C_14
    6  A    between atoms: C_5  and  C_6
    7  A    between atoms: C_6  and  C_7
                            x       y       z     vdW  Elec       q    Type
                         _______ _______ _______ _____ _____    ______ ____

>  <TORSDO>
F 5

>  <rfscore_v2>
6.77847234232434

>  <vina_affinity>
-8.116570323116024

>  <vina_gauss1>
87.50256192055305

>  <vina_gauss2>
1139.3766830449636

>  <vina_repulsion>
0.3926003487180302

>  <vina_hydrophobic>
52.027821842362

>  <vina_hydrogen>
0.0

>  <vina_intra_gauss1>
28.500373873631062

>  <vina_intra_gauss2>
172.80403802653095

>  <vina_intra_repulsion>
0.8262109105658928

>  <vina_intra_hydrophobic>
19.777859737503704

>  <vina_intra_hydrogen>
0.0

>  <vina_num_rotors>
5.0

>  <rfscore_v3>
6.683941246142746

>  <PLEClinear_p5_l1_s65536>
1.659544176771974

>  <nnscore>
6.62923523247068

$$$$
CHEMBL4075848-134
 OpenBabel12202021063D

 28 30  0  0  1  0  0  0  0  0999 V2000
   -1.8300   49.2190   65.2630 C   0  0  2  0  0  3  0  0  0  0  0  0
   -1.2880   47.8280   64.8430 C   0  0  0  0  0  2  0  0  0  0  0  0
    0.1480   47.6290   65.3100 C   0  0  0  0  0  2  0  0  0  0  0  0
    0.9760   48.5810   64.5790 N   0  0  2  0  0  0  0  0  0  0  0  0
    2.0630   48.1070   63.9170 C   0  0  1  0  0  3  0  0  0  0  0  0
    2.3950   46.8520   63.7000 N   0  0  0  0  0  0  0  0  0  0  0  0
    3.5440   46.9380   62.9750 C   0  0  0  0  0  0  0  0  0  0  0  0
    4.1220   45.8140   62.5600 N   0  0  0  0  0  0  0  0  0  0  0  0
    3.9550   48.1690   62.7050 N   0  0  0  0  0  2  0  0  0  0  0  0
    3.0180   48.8980   63.3330 N   0  0  0  0  0  0  0  0  0  0  0  0
    0.5920   49.9850   64.7080 C   0  0  0  0  0  2  0  0  0  0  0  0
   -0.9140   50.1690   64.4230 C   0  0  0  0  0  2  0  0  0  0  0  0
    3.5430   44.9830   62.5670 H   0  0  0  0  0  0  0  0  0  0  0  0
    4.7540   45.8920   61.7780 H   0  0  0  0  0  0  0  0  0  0  0  0
    3.0900   49.9040   63.3320 H   0  0  0  0  0  0  0  0  0  0  0  0
   -1.9000   49.5740   66.7280 N   0  0  0  0  0  0  0  0  0  0  0  0
   -3.8820   51.2190   66.4590 C   0  0  0  0  0  1  0  0  0  0  0  0
   -2.4450   50.9670   66.9540 C   0  0  0  0  0  3  0  0  0  0  0  0
   -2.3350   51.4500   68.4140 C   0  0  0  0  0  1  0  0  0  0  0  0
   -2.6150   48.6080   67.6280 C   0  0  0  0  0  3  0  0  0  0  0  0
   -3.5500   47.5550   67.0100 C   0  0  0  0  0  3  0  0  0  0  0  0
   -4.0650   46.4230   67.8700 C   0  0  0  0  0  0  0  0  0  0  0  0
   -3.2260   45.9620   68.9100 C   0  0  0  0  0  3  0  0  0  0  0  0
   -3.6380   44.9600   69.7800 C   0  0  0  0  0  3  0  0  0  0  0  0
   -4.9100   44.4200   69.6350 C   0  0  0  0  0  0  0  0  0  0  0  0
   -5.4400   43.1960   70.7200 Cl  0  0  0  0  0  0  0  0  0  0  0  0
   -5.7550   44.8690   68.6210 C   0  0  0  0  0  3  0  0  0  0  0  0
   -5.3410   45.8750   67.7420 C   0  0  0  0  0  3  0  0  0  0  0  0
  1 16  1  1  0  0  0
  2  1  1  0  0  0  0
  2  3  1  0  0  0  0
  4 11  1  1  0  0  0
  4  3  1  0  0  0  0
  5  6  1  6  0  0  0
  5  4  1  0  0  0  0
  7  6  2  0  0  0  0
  8 13  1  0  0  0  0
  8  7  1  0  0  0  0
  9  7  1  0  0  0  0
  9 10  1  0  0  0  0
 10  5  1  0  0  0  0
 12 11  1  0  0  0  0
 12  1  1  0  0  0  0
 14  8  1  0  0  0  0
 15 10  1  0  0  0  0
 16 18  1  0  0  0  0
 16 20  1  0  0  0  0
 17 18  1  0  0  0  0
 18 19  1  0  0  0  0
 21 20  2  0  0  0  0
 21 22  1  0  0  0  0
 22 23  1  0  0  0  0
 23 24  2  0  0  0  0
 25 24  1  0  0  0  0
 25 26  1  0  0  0  0
 27 25  2  0  0  0  0
 28 22  2  0  0  0  0
 28 27  1  0  0  0  0
M  END
>  <MODEL>
7

>  <REMARK>
 VINA RESULT:      -7.6      4.411      8.194
  Name = CHEMBL4075848-134
  7 active torsions:
  status: ('A' for Active; 'I' for Inactive)
    1  A    between atoms: C_1  and  C_2
    2  A    between atoms: C_2  and  C_3
    3  A    between atoms: C_2  and  N_4
    4  A    between atoms: N_4  and  C_5
    5  A    between atoms: N_4  and  C_14
    6  A    between atoms: C_5  and  C_6
    7  A    between atoms: C_6  and  C_7
                            x       y       z     vdW  Elec       q    Type
                         _______ _______ _______ _____ _____    ______ ____

>  <TORSDO>
F 5

>  <rfscore_v2>
6.939075772005764

>  <vina_affinity>
-8.122038884746104

>  <vina_gauss1>
93.10332152602003

>  <vina_gauss2>
1127.8486550589748

>  <vina_repulsion>
1.1939131334287338

>  <vina_hydrophobic>
44.814640334675225

>  <vina_hydrogen>
0.5422688819064841

>  <vina_intra_gauss1>
21.089860875431967

>  <vina_intra_gauss2>
172.1575713836532

>  <vina_intra_repulsion>
0.8855587508025669

>  <vina_intra_hydrophobic>
17.67286070707536

>  <vina_intra_hydrogen>
0.0

>  <vina_num_rotors>
4.0

>  <rfscore_v3>
6.9617994584859595

>  <PLEClinear_p5_l1_s65536>
2.7165456465857747

>  <nnscore>
7.465183626912584

$$$$
CHEMBL4075848-134
 OpenBabel12202021063D

 28 30  0  0  1  0  0  0  0  0999 V2000
   -1.6860   45.6130   69.8120 C   0  0  2  0  0  3  0  0  0  0  0  0
   -2.8730   44.6340   69.6170 C   0  0  0  0  0  2  0  0  0  0  0  0
   -3.9700   44.8810   70.6450 C   0  0  0  0  0  2  0  0  0  0  0  0
   -3.4220   44.5380   71.9520 N   0  0  2  0  0  0  0  0  0  0  0  0
   -4.1170   43.6680   72.7290 C   0  0  1  0  0  3  0  0  0  0  0  0
   -5.1640   42.9440   72.3950 N   0  0  0  0  0  0  0  0  0  0  0  0
   -5.4460   42.2370   73.5240 C   0  0  0  0  0  0  0  0  0  0  0  0
   -6.4520   41.3670   73.4970 N   0  0  0  0  0  0  0  0  0  0  0  0
   -4.6340   42.4550   74.5500 N   0  0  0  0  0  2  0  0  0  0  0  0
   -3.8150   43.3860   74.0360 N   0  0  0  0  0  0  0  0  0  0  0  0
   -2.2010   45.2460   72.3340 C   0  0  0  0  0  2  0  0  0  0  0  0
   -1.1470   45.1640   71.2090 C   0  0  0  0  0  2  0  0  0  0  0  0
   -6.7720   41.0800   72.5800 H   0  0  0  0  0  0  0  0  0  0  0  0
   -6.4410   40.6400   74.1970 H   0  0  0  0  0  0  0  0  0  0  0  0
   -3.0910   43.7840   74.6160 H   0  0  0  0  0  0  0  0  0  0  0  0
   -1.9260   47.0990   69.6970 N   0  0  0  0  0  0  0  0  0  0  0  0
    0.2720   48.2190   68.9090 C   0  0  0  0  0  1  0  0  0  0  0  0
   -0.7010   47.9060   70.0620 C   0  0  0  0  0  3  0  0  0  0  0  0
   -1.0190   49.2170   70.8070 C   0  0  0  0  0  1  0  0  0  0  0  0
   -2.4810   47.5990   68.3950 C   0  0  0  0  0  2  0  0  0  0  0  0
   -3.8370   48.3250   68.3840 C   0  0  0  0  0  2  0  0  0  0  0  0
   -5.0700   47.5880   67.9110 C   0  0  0  0  0  0  0  0  0  0  0  0
   -6.3130   48.2490   68.0350 C   0  0  0  0  0  3  0  0  0  0  0  0
   -7.4900   47.6670   67.5820 C   0  0  0  0  0  3  0  0  0  0  0  0
   -7.4360   46.4190   66.9730 C   0  0  0  0  0  0  0  0  0  0  0  0
   -8.8820   45.6990   66.3870 Cl  0  0  0  0  0  0  0  0  0  0  0  0
   -6.2170   45.7550   66.8330 C   0  0  0  0  0  3  0  0  0  0  0  0
   -5.0320   46.3380   67.2920 C   0  0  0  0  0  3  0  0  0  0  0  0
  1 16  1  1  0  0  0
  1 12  1  0  0  0  0
  2  1  1  0  0  0  0
  2  3  1  0  0  0  0
  4  3  1  1  0  0  0
  4 11  1  0  0  0  0
  4  5  1  0  0  0  0
  5  6  1  6  0  0  0
  5 10  1  0  0  0  0
  6  7  2  0  0  0  0
  7  9  1  0  0  0  0
  8  7  1  0  0  0  0
  8 14  1  0  0  0  0
 10  9  1  0  0  0  0
 10 15  1  0  0  0  0
 12 11  1  0  0  0  0
 13  8  1  0  0  0  0
 16 18  1  0  0  0  0
 17 18  1  0  0  0  0
 18 19  1  0  0  0  0
 20 16  1  0  0  0  0
 21 20  1  0  0  0  0
 22 23  1  0  0  0  0
 22 21  1  0  0  0  0
 24 23  2  0  0  0  0
 25 24  1  0  0  0  0
 26 25  1  0  0  0  0
 27 25  2  0  0  0  0
 27 28  1  0  0  0  0
 28 22  2  0  0  0  0
M  END
>  <MODEL>
8

>  <REMARK>
 VINA RESULT:      -7.5      5.314      7.573
  Name = CHEMBL4075848-134
  7 active torsions:
  status: ('A' for Active; 'I' for Inactive)
    1  A    between atoms: C_1  and  C_2
    2  A    between atoms: C_2  and  C_3
    3  A    between atoms: C_2  and  N_4
    4  A    between atoms: N_4  and  C_5
    5  A    between atoms: N_4  and  C_14
    6  A    between atoms: C_5  and  C_6
    7  A    between atoms: C_6  and  C_7
                            x       y       z     vdW  Elec       q    Type
                         _______ _______ _______ _____ _____    ______ ____

>  <TORSDO>
F 5

>  <rfscore_v2>
7.518773536852037

>  <vina_affinity>
-7.062653528127624

>  <vina_gauss1>
81.12831213587424

>  <vina_gauss2>
1285.8789871406648

>  <vina_repulsion>
2.3690822362064807

>  <vina_hydrophobic>
39.062718420476926

>  <vina_hydrogen>
0.3817782985974569

>  <vina_intra_gauss1>
32.40156432936434

>  <vina_intra_gauss2>
208.5548486796473

>  <vina_intra_repulsion>
0.0788359526012394

>  <vina_intra_hydrophobic>
19.172443656982367

>  <vina_intra_hydrogen>
0.0

>  <vina_num_rotors>
5.0

>  <rfscore_v3>
7.199246195376525

>  <PLEClinear_p5_l1_s65536>
2.5260929862993176

>  <nnscore>
6.666712501270882

$$$$
CHEMBL4075848-134
 OpenBabel12202021063D

 28 30  0  0  1  0  0  0  0  0999 V2000
   -3.8360   48.4900   67.2640 C   0  0  2  0  0  3  0  0  0  0  0  0
   -3.4410   47.8640   68.6270 C   0  0  0  0  0  2  0  0  0  0  0  0
   -3.3120   46.3490   68.5240 C   0  0  0  0  0  2  0  0  0  0  0  0
   -4.6420   45.8200   68.2480 N   0  0  2  0  0  0  0  0  0  0  0  0
   -5.1180   44.8360   69.0540 C   0  0  1  0  0  3  0  0  0  0  0  0
   -4.6020   44.3910   70.1790 N   0  0  0  0  0  0  0  0  0  0  0  0
   -5.4790   43.4330   70.5860 C   0  0  0  0  0  0  0  0  0  0  0  0
   -5.2510   42.8060   71.7380 N   0  0  0  0  0  0  0  0  0  0  0  0
   -6.5300   43.2520   69.7970 N   0  0  0  0  0  2  0  0  0  0  0  0
   -6.2700   44.1320   68.8170 N   0  0  0  0  0  0  0  0  0  0  0  0
   -5.3030   46.3540   67.0590 C   0  0  0  0  0  2  0  0  0  0  0  0
   -5.2680   47.8970   67.0600 C   0  0  0  0  0  2  0  0  0  0  0  0
   -4.6040   43.2560   72.3730 H   0  0  0  0  0  0  0  0  0  0  0  0
   -6.0440   42.3610   72.1750 H   0  0  0  0  0  0  0  0  0  0  0  0
   -6.8980   44.1960   68.0290 H   0  0  0  0  0  0  0  0  0  0  0  0
   -2.9230   48.3100   66.0750 N   0  0  0  0  0  0  0  0  0  0  0  0
   -3.5020   50.7700   65.5070 C   0  0  0  0  0  1  0  0  0  0  0  0
   -3.1660   49.3520   65.0060 C   0  0  0  0  0  3  0  0  0  0  0  0
   -2.0320   49.4530   63.9660 C   0  0  0  0  0  1  0  0  0  0  0  0
   -1.4520   48.2180   66.3550 C   0  0  0  0  0  2  0  0  0  0  0  0
   -0.8330   49.1250   67.4330 C   0  0  0  0  0  2  0  0  0  0  0  0
    0.0470   48.5140   68.5010 C   0  0  0  0  0  0  0  0  0  0  0  0
    1.1450   47.7340   68.0730 C   0  0  0  0  0  3  0  0  0  0  0  0
    2.0330   47.1760   68.9840 C   0  0  0  0  0  3  0  0  0  0  0  0
    1.8470   47.4110   70.3410 C   0  0  0  0  0  0  0  0  0  0  0  0
    2.9520   46.7450   71.4760 Cl  0  0  0  0  0  0  0  0  0  0  0  0
    0.7740   48.1860   70.7810 C   0  0  0  0  0  3  0  0  0  0  0  0
   -0.1230   48.7460   69.8650 C   0  0  0  0  0  3  0  0  0  0  0  0
  1 16  1  6  0  0  0
  1  2  1  0  0  0  0
  3  2  1  0  0  0  0
  4 11  1  6  0  0  0
  4  3  1  0  0  0  0
  4  5  1  0  0  0  0
  5  6  1  1  0  0  0
  6  7  2  0  0  0  0
  7  8  1  0  0  0  0
  8 14  1  0  0  0  0
  8 13  1  0  0  0  0
  9  7  1  0  0  0  0
 10  5  1  0  0  0  0
 10  9  1  0  0  0  0
 11 12  1  0  0  0  0
 12  1  1  0  0  0  0
 15 10  1  0  0  0  0
 16 20  1  0  0  0  0
 18 17  1  0  0  0  0
 18 16  1  0  0  0  0
 19 18  1  0  0  0  0
 20 21  1  0  0  0  0
 21 22  1  0  0  0  0
 22 28  1  0  0  0  0
 23 22  2  0  0  0  0
 23 24  1  0  0  0  0
 24 25  2  0  0  0  0
 25 27  1  0  0  0  0
 25 26  1  0  0  0  0
 28 27  2  0  0  0  0
M  END
>  <MODEL>
9

>  <REMARK>
 VINA RESULT:      -7.5      3.992      5.184
  Name = CHEMBL4075848-134
  7 active torsions:
  status: ('A' for Active; 'I' for Inactive)
    1  A    between atoms: C_1  and  C_2
    2  A    between atoms: C_2  and  C_3
    3  A    between atoms: C_2  and  N_4
    4  A    between atoms: N_4  and  C_5
    5  A    between atoms: N_4  and  C_14
    6  A    between atoms: C_5  and  C_6
    7  A    between atoms: C_6  and  C_7
                            x       y       z     vdW  Elec       q    Type
                         _______ _______ _______ _____ _____    ______ ____

>  <TORSDO>
F 5

>  <rfscore_v2>
7.082951455266952

>  <vina_affinity>
-7.848401044002461

>  <vina_gauss1>
83.29449530311719

>  <vina_gauss2>
1190.5714096918302

>  <vina_repulsion>
0.8747821290975566

>  <vina_hydrophobic>
38.47236031812406

>  <vina_hydrogen>
0.7152691377311049

>  <vina_intra_gauss1>
28.228574803564165

>  <vina_intra_gauss2>
203.41096006743797

>  <vina_intra_repulsion>
1.428108641264864

>  <vina_intra_hydrophobic>
21.39636627349796

>  <vina_intra_hydrogen>
0.0

>  <vina_num_rotors>
5.0

>  <rfscore_v3>
7.082145626278952

>  <PLEClinear_p5_l1_s65536>
2.485850192877288

>  <nnscore>
7.137041200876195

$$$$
