CHEMBL4098997-73
 OpenBabel12202021073D

 27 29  0  0  1  0  0  0  0  0999 V2000
   -0.5240   49.3910   68.0030 C   0  0  2  0  0  3  0  0  0  0  0  0
    0.2590   48.3470   68.8390 C   0  0  0  0  0  2  0  0  0  0  0  0
   -0.2110   46.9100   68.6090 C   0  0  0  0  0  2  0  0  0  0  0  0
   -1.6620   46.8050   68.7680 N   0  0  1  0  0  0  0  0  0  0  0  0
   -2.1780   45.8920   69.6310 C   0  0  2  0  0  3  0  0  0  0  0  0
   -1.5610   45.2050   70.5650 N   0  0  0  0  0  0  0  0  0  0  0  0
   -2.5520   44.4640   71.1280 C   0  0  0  0  0  0  0  0  0  0  0  0
   -2.2510   43.6870   72.1660 N   0  0  0  0  0  0  0  0  0  0  0  0
   -3.7600   44.6380   70.6160 N   0  0  0  0  0  2  0  0  0  0  0  0
   -3.4950   45.5220   69.6400 N   0  0  0  0  0  0  0  0  0  0  0  0
   -2.4700   47.7560   68.0150 C   0  0  0  0  0  2  0  0  0  0  0  0
   -2.0130   49.1720   68.3550 C   0  0  0  0  0  2  0  0  0  0  0  0
   -1.3900   43.9000   72.6440 H   0  0  0  0  0  0  0  0  0  0  0  0
   -3.0190   43.4280   72.7700 H   0  0  0  0  0  0  0  0  0  0  0  0
   -4.2400   45.8120   69.0240 H   0  0  0  0  0  0  0  0  0  0  0  0
   -0.2390   49.3830   66.5310 N   0  0  0  0  0  0  0  0  0  0  0  0
   -0.1920   51.9370   66.3140 C   0  0  0  0  0  1  0  0  0  0  0  0
   -0.7770   50.5970   65.8750 C   0  0  0  0  0  2  0  0  0  0  0  0
    1.1960   49.1560   66.2120 C   0  0  0  0  0  2  0  0  0  0  0  0
    1.5070   48.1650   65.0720 C   0  0  0  0  0  2  0  0  0  0  0  0
    2.0810   48.8420   63.8460 C   0  0  0  0  0  0  0  0  0  0  0  0
    1.5150   50.0260   63.3520 C   0  0  0  0  0  3  0  0  0  0  0  0
    2.0600   50.6600   62.2310 C   0  0  0  0  0  3  0  0  0  0  0  0
    3.1730   50.1120   61.5970 C   0  0  0  0  0  0  0  0  0  0  0  0
    3.9170   50.9760   60.0900 Br  0  0  0  0  0  0  0  0  0  0  0  0
    3.7420   48.9310   62.0690 C   0  0  0  0  0  3  0  0  0  0  0  0
    3.1970   48.2980   63.1890 C   0  0  0  0  0  3  0  0  0  0  0  0
  1 16  1  6  0  0  0
  1 12  1  0  0  0  0
  1  2  1  0  0  0  0
  3  2  1  0  0  0  0
  4  3  1  1  0  0  0
  4 11  1  0  0  0  0
  4  5  1  0  0  0  0
  5 10  1  0  0  0  0
  5  6  1  6  0  0  0
  6  7  2  0  0  0  0
  7  8  1  0  0  0  0
  8 13  1  0  0  0  0
  8 14  1  0  0  0  0
  9  7  1  0  0  0  0
 10  9  1  0  0  0  0
 11 12  1  0  0  0  0
 15 10  1  0  0  0  0
 18 17  1  0  0  0  0
 18 16  1  0  0  0  0
 19 16  1  0  0  0  0
 20 19  1  0  0  0  0
 21 20  1  0  0  0  0
 22 21  1  0  0  0  0
 23 22  2  0  0  0  0
 24 26  2  0  0  0  0
 24 23  1  0  0  0  0
 25 24  1  0  0  0  0
 26 27  1  0  0  0  0
 27 21  2  0  0  0  0
M  END
>  <MODEL>
1

>  <REMARK>
 VINA RESULT:      -8.3      0.000      0.000
  Name = CHEMBL4098997-73
  6 active torsions:
  status: ('A' for Active; 'I' for Inactive)
    1  A    between atoms: C_1  and  C_2
    2  A    between atoms: C_2  and  N_3
    3  A    between atoms: N_3  and  C_4
    4  A    between atoms: N_3  and  C_13
    5  A    between atoms: C_4  and  C_5
    6  A    between atoms: C_5  and  C_6
                            x       y       z     vdW  Elec       q    Type
                         _______ _______ _______ _____ _____    ______ ____

>  <TORSDO>
F 5

>  <rfscore_v2>
7.0550766936951925

>  <vina_affinity>
-8.108279525060858

>  <vina_gauss1>
77.34532825399515

>  <vina_gauss2>
1202.7054987680062

>  <vina_repulsion>
0.8424218091815949

>  <vina_hydrophobic>
49.10278776638291

>  <vina_hydrogen>
0.8596655805255876

>  <vina_intra_gauss1>
26.730503892155028

>  <vina_intra_gauss2>
144.44950740544994

>  <vina_intra_repulsion>
0.33943821396589885

>  <vina_intra_hydrophobic>
14.315432024718044

>  <vina_intra_hydrogen>
0.0

>  <vina_num_rotors>
5.0

>  <rfscore_v3>
6.963462290542798

>  <PLEClinear_p5_l1_s65536>
3.3102979173293314

>  <nnscore>
6.890101280384042

$$$$
CHEMBL4098997-73
 OpenBabel12202021073D

 27 29  0  0  1  0  0  0  0  0999 V2000
   -0.9030   48.6180   67.9550 C   0  0  2  0  0  3  0  0  0  0  0  0
   -0.1080   47.8000   69.0040 C   0  0  0  0  0  2  0  0  0  0  0  0
   -0.4670   46.3130   69.0130 C   0  0  0  0  0  2  0  0  0  0  0  0
   -1.9160   46.1290   69.1160 N   0  0  1  0  0  0  0  0  0  0  0  0
   -2.4240   45.3460   70.1020 C   0  0  2  0  0  3  0  0  0  0  0  0
   -1.8230   44.8820   71.1740 N   0  0  0  0  0  0  0  0  0  0  0  0
   -2.7970   44.1800   71.8120 C   0  0  0  0  0  0  0  0  0  0  0  0
   -2.5120   43.6220   72.9860 N   0  0  0  0  0  0  0  0  0  0  0  0
   -3.9800   44.1690   71.2160 N   0  0  0  0  0  2  0  0  0  0  0  0
   -3.7120   44.8850   70.1120 N   0  0  0  0  0  0  0  0  0  0  0  0
   -2.7350   46.8690   68.1640 C   0  0  0  0  0  2  0  0  0  0  0  0
   -2.3950   48.3530   68.2670 C   0  0  0  0  0  2  0  0  0  0  0  0
   -1.6980   43.9810   73.4610 H   0  0  0  0  0  0  0  0  0  0  0  0
   -3.2970   43.4170   73.5870 H   0  0  0  0  0  0  0  0  0  0  0  0
   -4.4340   45.0050   69.4170 H   0  0  0  0  0  0  0  0  0  0  0  0
   -0.5270   48.3730   66.5260 N   0  0  0  0  0  0  0  0  0  0  0  0
   -2.1580   48.2240   64.5530 C   0  0  0  0  0  1  0  0  0  0  0  0
   -1.4460   49.0770   65.6010 C   0  0  0  0  0  2  0  0  0  0  0  0
    0.9020   48.6660   66.2360 C   0  0  0  0  0  2  0  0  0  0  0  0
    1.2180   49.3140   64.8720 C   0  0  0  0  0  2  0  0  0  0  0  0
    2.1610   48.4800   64.0310 C   0  0  0  0  0  0  0  0  0  0  0  0
    2.3560   47.1200   64.3100 C   0  0  0  0  0  3  0  0  0  0  0  0
    3.2120   46.3480   63.5180 C   0  0  0  0  0  3  0  0  0  0  0  0
    3.8790   46.9330   62.4440 C   0  0  0  0  0  0  0  0  0  0  0  0
    5.0260   45.8860   61.3670 Br  0  0  0  0  0  0  0  0  0  0  0  0
    3.7030   48.2850   62.1590 C   0  0  0  0  0  3  0  0  0  0  0  0
    2.8480   49.0560   62.9500 C   0  0  0  0  0  3  0  0  0  0  0  0
  1 16  1  6  0  0  0
  1 12  1  0  0  0  0
  1  2  1  0  0  0  0
  2  3  1  0  0  0  0
  4  3  1  1  0  0  0
  4 11  1  0  0  0  0
  4  5  1  0  0  0  0
  5 10  1  0  0  0  0
  5  6  1  6  0  0  0
  6  7  2  0  0  0  0
  7  8  1  0  0  0  0
  8 13  1  0  0  0  0
  8 14  1  0  0  0  0
  9  7  1  0  0  0  0
 10  9  1  0  0  0  0
 11 12  1  0  0  0  0
 15 10  1  0  0  0  0
 17 18  1  0  0  0  0
 18 16  1  0  0  0  0
 19 16  1  0  0  0  0
 20 19  1  0  0  0  0
 21 22  1  0  0  0  0
 21 20  1  0  0  0  0
 23 22  2  0  0  0  0
 24 23  1  0  0  0  0
 25 24  1  0  0  0  0
 26 24  2  0  0  0  0
 26 27  1  0  0  0  0
 27 21  2  0  0  0  0
M  END
>  <MODEL>
2

>  <REMARK>
 VINA RESULT:      -8.2      1.619      2.116
  Name = CHEMBL4098997-73
  6 active torsions:
  status: ('A' for Active; 'I' for Inactive)
    1  A    between atoms: C_1  and  C_2
    2  A    between atoms: C_2  and  N_3
    3  A    between atoms: N_3  and  C_4
    4  A    between atoms: N_3  and  C_13
    5  A    between atoms: C_4  and  C_5
    6  A    between atoms: C_5  and  C_6
                            x       y       z     vdW  Elec       q    Type
                         _______ _______ _______ _____ _____    ______ ____

>  <TORSDO>
F 5

>  <rfscore_v2>
7.032909382006877

>  <vina_affinity>
-8.051239611815806

>  <vina_gauss1>
84.7518127053769

>  <vina_gauss2>
1236.8060333412984

>  <vina_repulsion>
1.0883626222969396

>  <vina_hydrophobic>
46.12190919793418

>  <vina_hydrogen>
0.5153136691675472

>  <vina_intra_gauss1>
23.59372625043971

>  <vina_intra_gauss2>
144.00971761345124

>  <vina_intra_repulsion>
0.18964959106315835

>  <vina_intra_hydrophobic>
11.259533376237737

>  <vina_intra_hydrogen>
0.0

>  <vina_num_rotors>
5.0

>  <rfscore_v3>
6.929697273781772

>  <PLEClinear_p5_l1_s65536>
3.859819055142564

>  <nnscore>
7.06909921470002

$$$$
CHEMBL4098997-73
 OpenBabel12202021073D

 27 29  0  0  1  0  0  0  0  0999 V2000
   -2.0670   49.7110   67.4090 C   0  0  2  0  0  3  0  0  0  0  0  0
   -0.9130   48.7540   67.0180 C   0  0  0  0  0  2  0  0  0  0  0  0
   -0.7040   47.6140   68.0160 C   0  0  0  0  0  2  0  0  0  0  0  0
   -0.5870   48.1320   69.3800 N   0  0  1  0  0  0  0  0  0  0  0  0
    0.4930   47.7990   70.1330 C   0  0  2  0  0  3  0  0  0  0  0  0
    1.6210   47.2460   69.7510 N   0  0  0  0  0  0  0  0  0  0  0  0
    2.3420   47.1560   70.9000 C   0  0  0  0  0  0  0  0  0  0  0  0
    3.5820   46.6780   70.8350 N   0  0  0  0  0  0  0  0  0  0  0  0
    1.7470   47.6180   71.9880 N   0  0  0  0  0  2  0  0  0  0  0  0
    0.5580   47.9880   71.4870 N   0  0  0  0  0  0  0  0  0  0  0  0
   -1.6350   49.0440   69.8230 C   0  0  0  0  0  2  0  0  0  0  0  0
   -1.7310   50.2030   68.8360 C   0  0  0  0  0  2  0  0  0  0  0  0
    4.0090   46.6770   69.9220 H   0  0  0  0  0  0  0  0  0  0  0  0
    4.2020   46.9330   71.5920 H   0  0  0  0  0  0  0  0  0  0  0  0
   -0.1510   48.3420   72.1120 H   0  0  0  0  0  0  0  0  0  0  0  0
   -3.4480   49.1470   67.2690 N   0  0  0  0  0  0  0  0  0  0  0  0
   -3.9900   51.2680   65.9340 C   0  0  0  0  0  1  0  0  0  0  0  0
   -4.4290   50.2070   66.9410 C   0  0  0  0  0  2  0  0  0  0  0  0
   -3.5200   47.9980   66.3280 C   0  0  0  0  0  2  0  0  0  0  0  0
   -4.8660   47.2500   66.2420 C   0  0  0  0  0  2  0  0  0  0  0  0
   -5.0520   46.2460   67.3600 C   0  0  0  0  0  0  0  0  0  0  0  0
   -4.0330   46.0200   68.2960 C   0  0  0  0  0  3  0  0  0  0  0  0
   -4.2170   45.1070   69.3390 C   0  0  0  0  0  3  0  0  0  0  0  0
   -5.4190   44.4130   69.4500 C   0  0  0  0  0  0  0  0  0  0  0  0
   -5.6710   43.1890   70.8670 Br  0  0  0  0  0  0  0  0  0  0  0  0
   -6.4390   44.6190   68.5230 C   0  0  0  0  0  3  0  0  0  0  0  0
   -6.2550   45.5310   67.4810 C   0  0  0  0  0  3  0  0  0  0  0  0
  1 16  1  1  0  0  0
  1 12  1  0  0  0  0
  2  1  1  0  0  0  0
  2  3  1  0  0  0  0
  4  3  1  6  0  0  0
  4 11  1  0  0  0  0
  4  5  1  0  0  0  0
  5  6  1  1  0  0  0
  5 10  1  0  0  0  0
  6  7  2  0  0  0  0
  7  9  1  0  0  0  0
  8  7  1  0  0  0  0
  8 14  1  0  0  0  0
 10  9  1  0  0  0  0
 10 15  1  0  0  0  0
 12 11  1  0  0  0  0
 13  8  1  0  0  0  0
 17 18  1  0  0  0  0
 18 16  1  0  0  0  0
 19 16  1  0  0  0  0
 20 19  1  0  0  0  0
 20 21  1  0  0  0  0
 21 27  2  0  0  0  0
 21 22  1  0  0  0  0
 22 23  2  0  0  0  0
 23 24  1  0  0  0  0
 24 25  1  0  0  0  0
 26 24  2  0  0  0  0
 27 26  1  0  0  0  0
M  END
>  <MODEL>
3

>  <REMARK>
 VINA RESULT:      -8.1      5.041      7.283
  Name = CHEMBL4098997-73
  6 active torsions:
  status: ('A' for Active; 'I' for Inactive)
    1  A    between atoms: C_1  and  C_2
    2  A    between atoms: C_2  and  N_3
    3  A    between atoms: N_3  and  C_4
    4  A    between atoms: N_3  and  C_13
    5  A    between atoms: C_4  and  C_5
    6  A    between atoms: C_5  and  C_6
                            x       y       z     vdW  Elec       q    Type
                         _______ _______ _______ _____ _____    ______ ____

>  <TORSDO>
F 5

>  <rfscore_v2>
6.885807577089575

>  <vina_affinity>
-7.674673232869367

>  <vina_gauss1>
83.24705256421805

>  <vina_gauss2>
1173.2087027431553

>  <vina_repulsion>
1.7638163391011248

>  <vina_hydrophobic>
43.528627902848314

>  <vina_hydrogen>
1.4581159480371086

>  <vina_intra_gauss1>
28.139090169896868

>  <vina_intra_gauss2>
188.02209336094398

>  <vina_intra_repulsion>
0.7633714835664456

>  <vina_intra_hydrophobic>
13.763022938419631

>  <vina_intra_hydrogen>
0.0

>  <vina_num_rotors>
5.0

>  <rfscore_v3>
7.094197363375195

>  <PLEClinear_p5_l1_s65536>
1.8337138042591856

>  <nnscore>
7.558175943090785

$$$$
CHEMBL4098997-73
 OpenBabel12202021073D

 27 29  0  0  1  0  0  0  0  0999 V2000
   -0.8720   47.1610   69.1510 C   0  0  2  0  0  3  0  0  0  0  0  0
   -0.7660   47.4710   70.6660 C   0  0  0  0  0  2  0  0  0  0  0  0
    0.5220   48.2010   71.0470 C   0  0  0  0  0  2  0  0  0  0  0  0
    1.6940   47.5000   70.5190 N   0  0  1  0  0  0  0  0  0  0  0  0
    2.6980   47.1450   71.3610 C   0  0  2  0  0  3  0  0  0  0  0  0
    2.6990   47.1200   72.6740 N   0  0  0  0  0  0  0  0  0  0  0  0
    3.9440   46.6750   72.9880 C   0  0  0  0  0  0  0  0  0  0  0  0
    4.2460   46.4850   74.2700 N   0  0  0  0  0  0  0  0  0  0  0  0
    4.7360   46.4120   71.9590 N   0  0  0  0  0  2  0  0  0  0  0  0
    3.9380   46.7530   70.9350 N   0  0  0  0  0  0  0  0  0  0  0  0
    1.6690   47.1680   69.1000 C   0  0  0  0  0  2  0  0  0  0  0  0
    0.4070   46.3650   68.8010 C   0  0  0  0  0  2  0  0  0  0  0  0
    3.4650   46.4090   74.9020 H   0  0  0  0  0  0  0  0  0  0  0  0
    5.0090   45.8500   74.4620 H   0  0  0  0  0  0  0  0  0  0  0  0
    4.3000   46.7070   69.9930 H   0  0  0  0  0  0  0  0  0  0  0  0
   -1.1140   48.3450   68.2650 N   0  0  0  0  0  0  0  0  0  0  0  0
    0.1340   48.9410   66.1070 C   0  0  0  0  0  1  0  0  0  0  0  0
   -0.8320   48.0200   66.8480 C   0  0  0  0  0  2  0  0  0  0  0  0
   -2.4590   48.9520   68.4510 C   0  0  0  0  0  2  0  0  0  0  0  0
   -3.5450   48.5670   67.4260 C   0  0  0  0  0  2  0  0  0  0  0  0
   -4.5240   47.5450   67.9640 C   0  0  0  0  0  0  0  0  0  0  0  0
   -5.8420   47.9110   68.2730 C   0  0  0  0  0  3  0  0  0  0  0  0
   -6.7490   46.9590   68.7510 C   0  0  0  0  0  3  0  0  0  0  0  0
   -6.3420   45.6380   68.9240 C   0  0  0  0  0  0  0  0  0  0  0  0
   -7.5730   44.3510   69.5570 Br  0  0  0  0  0  0  0  0  0  0  0  0
   -5.0340   45.2610   68.6300 C   0  0  0  0  0  3  0  0  0  0  0  0
   -4.1280   46.2110   68.1540 C   0  0  0  0  0  3  0  0  0  0  0  0
  1 16  1  6  0  0  0
  1  2  1  0  0  0  0
  2  3  1  0  0  0  0
  4 11  1  1  0  0  0
  4  3  1  0  0  0  0
  4  5  1  0  0  0  0
  5  6  1  1  0  0  0
  6  7  2  0  0  0  0
  7  8  1  0  0  0  0
  8 14  1  0  0  0  0
  8 13  1  0  0  0  0
  9  7  1  0  0  0  0
 10  5  1  0  0  0  0
 10  9  1  0  0  0  0
 12 11  1  0  0  0  0
 12  1  1  0  0  0  0
 15 10  1  0  0  0  0
 16 19  1  0  0  0  0
 17 18  1  0  0  0  0
 18 16  1  0  0  0  0
 20 21  1  0  0  0  0
 20 19  1  0  0  0  0
 21 27  2  0  0  0  0
 21 22  1  0  0  0  0
 22 23  2  0  0  0  0
 23 24  1  0  0  0  0
 24 25  1  0  0  0  0
 26 24  2  0  0  0  0
 27 26  1  0  0  0  0
M  END
>  <MODEL>
4

>  <REMARK>
 VINA RESULT:      -8.0      4.879      7.523
  Name = CHEMBL4098997-73
  6 active torsions:
  status: ('A' for Active; 'I' for Inactive)
    1  A    between atoms: C_1  and  C_2
    2  A    between atoms: C_2  and  N_3
    3  A    between atoms: N_3  and  C_4
    4  A    between atoms: N_3  and  C_13
    5  A    between atoms: C_4  and  C_5
    6  A    between atoms: C_5  and  C_6
                            x       y       z     vdW  Elec       q    Type
                         _______ _______ _______ _____ _____    ______ ____

>  <TORSDO>
F 5

>  <rfscore_v2>
7.59900703085802

>  <vina_affinity>
-7.553604100985595

>  <vina_gauss1>
102.25954106770897

>  <vina_gauss2>
1295.9408986069234

>  <vina_repulsion>
3.0644294356625417

>  <vina_hydrophobic>
32.976093485324796

>  <vina_hydrogen>
1.4517861095798152

>  <vina_intra_gauss1>
28.741768760934928

>  <vina_intra_gauss2>
151.41695051794062

>  <vina_intra_repulsion>
0.36369597481471705

>  <vina_intra_hydrophobic>
14.476348531276926

>  <vina_intra_hydrogen>
0.0

>  <vina_num_rotors>
5.0

>  <rfscore_v3>
7.544790078532584

>  <PLEClinear_p5_l1_s65536>
3.317105819857321

>  <nnscore>
7.704527765063107

$$$$
CHEMBL4098997-73
 OpenBabel12202021073D

 27 29  0  0  1  0  0  0  0  0999 V2000
   -0.0530   48.4680   68.0340 C   0  0  2  0  0  3  0  0  0  0  0  0
   -0.5880   49.4640   66.9760 C   0  0  0  0  0  2  0  0  0  0  0  0
   -0.4990   48.9350   65.5430 C   0  0  0  0  0  2  0  0  0  0  0  0
    0.8520   48.4530   65.2500 N   0  0  1  0  0  0  0  0  0  0  0  0
    1.5150   48.9340   64.1670 C   0  0  2  0  0  3  0  0  0  0  0  0
    1.2260   49.9780   63.4250 N   0  0  0  0  0  0  0  0  0  0  0  0
    2.2230   50.0030   62.5000 C   0  0  0  0  0  0  0  0  0  0  0  0
    2.2460   50.9980   61.6180 N   0  0  0  0  0  0  0  0  0  0  0  0
    3.1280   49.0420   62.6080 N   0  0  0  0  0  2  0  0  0  0  0  0
    2.6400   48.3510   63.6500 N   0  0  0  0  0  0  0  0  0  0  0  0
    1.4280   47.5130   66.2030 C   0  0  0  0  0  2  0  0  0  0  0  0
    1.3930   48.1350   67.5960 C   0  0  0  0  0  2  0  0  0  0  0  0
    1.7030   51.8140   61.8560 H   0  0  0  0  0  0  0  0  0  0  0  0
    3.1380   51.1950   61.1870 H   0  0  0  0  0  0  0  0  0  0  0  0
    3.1060   47.5040   63.9400 H   0  0  0  0  0  0  0  0  0  0  0  0
   -0.9080   47.2620   68.2760 N   0  0  0  0  0  0  0  0  0  0  0  0
   -0.6600   46.7880   70.7840 C   0  0  0  0  0  1  0  0  0  0  0  0
   -0.3380   46.4040   69.3410 C   0  0  0  0  0  2  0  0  0  0  0  0
   -2.3370   47.5950   68.5220 C   0  0  0  0  0  2  0  0  0  0  0  0
   -3.3730   46.9660   67.5690 C   0  0  0  0  0  2  0  0  0  0  0  0
   -4.2640   45.9530   68.2560 C   0  0  0  0  0  0  0  0  0  0  0  0
   -5.5470   45.6770   67.7630 C   0  0  0  0  0  3  0  0  0  0  0  0
   -6.3590   44.7250   68.3880 C   0  0  0  0  0  3  0  0  0  0  0  0
   -5.8920   44.0460   69.5110 C   0  0  0  0  0  0  0  0  0  0  0  0
   -6.9840   42.7500   70.3470 Br  0  0  0  0  0  0  0  0  0  0  0  0
   -4.6230   44.3140   70.0180 C   0  0  0  0  0  3  0  0  0  0  0  0
   -3.8120   45.2650   69.3940 C   0  0  0  0  0  3  0  0  0  0  0  0
  1 16  1  6  0  0  0
  2  1  1  0  0  0  0
  3  2  1  0  0  0  0
  4  3  1  1  0  0  0
  4 11  1  0  0  0  0
  5  6  1  6  0  0  0
  5  4  1  0  0  0  0
  7  9  1  0  0  0  0
  7  6  2  0  0  0  0
  8 13  1  0  0  0  0
  8  7  1  0  0  0  0
  9 10  1  0  0  0  0
 10 15  1  0  0  0  0
 10  5  1  0  0  0  0
 11 12  1  0  0  0  0
 12  1  1  0  0  0  0
 14  8  1  0  0  0  0
 16 19  1  0  0  0  0
 16 18  1  0  0  0  0
 18 17  1  0  0  0  0
 20 21  1  0  0  0  0
 20 19  1  0  0  0  0
 21 27  1  0  0  0  0
 22 21  2  0  0  0  0
 22 23  1  0  0  0  0
 23 24  2  0  0  0  0
 24 26  1  0  0  0  0
 24 25  1  0  0  0  0
 27 26  2  0  0  0  0
M  END
>  <MODEL>
5

>  <REMARK>
 VINA RESULT:      -8.0      4.409      8.884
  Name = CHEMBL4098997-73
  6 active torsions:
  status: ('A' for Active; 'I' for Inactive)
    1  A    between atoms: C_1  and  C_2
    2  A    between atoms: C_2  and  N_3
    3  A    between atoms: N_3  and  C_4
    4  A    between atoms: N_3  and  C_13
    5  A    between atoms: C_4  and  C_5
    6  A    between atoms: C_5  and  C_6
                            x       y       z     vdW  Elec       q    Type
                         _______ _______ _______ _____ _____    ______ ____

>  <TORSDO>
F 5

>  <rfscore_v2>
6.696851132256632

>  <vina_affinity>
-7.82777970255257

>  <vina_gauss1>
85.12758531757235

>  <vina_gauss2>
1104.686130337271

>  <vina_repulsion>
0.3469135770418444

>  <vina_hydrophobic>
47.808837618759355

>  <vina_hydrogen>
0.0

>  <vina_intra_gauss1>
27.631346181766542

>  <vina_intra_gauss2>
145.14106877378384

>  <vina_intra_repulsion>
0.05129640850269228

>  <vina_intra_hydrophobic>
14.374680258832052

>  <vina_intra_hydrogen>
0.0

>  <vina_num_rotors>
5.0

>  <rfscore_v3>
6.511454550616054

>  <PLEClinear_p5_l1_s65536>
2.6491580184480013

>  <nnscore>
6.962583062366955

$$$$
CHEMBL4098997-73
 OpenBabel12202021073D

 27 29  0  0  1  0  0  0  0  0999 V2000
   -2.4080   44.5810   70.5540 C   0  0  2  0  0  3  0  0  0  0  0  0
   -3.7640   43.9720   70.1180 C   0  0  0  0  0  2  0  0  0  0  0  0
   -4.9260   44.3550   71.0360 C   0  0  0  0  0  2  0  0  0  0  0  0
   -4.5940   44.0810   72.4360 N   0  0  1  0  0  0  0  0  0  0  0  0
   -5.4250   43.3100   73.1840 C   0  0  2  0  0  3  0  0  0  0  0  0
   -6.4110   42.5400   72.7840 N   0  0  0  0  0  0  0  0  0  0  0  0
   -6.8840   41.9970   73.9370 C   0  0  0  0  0  0  0  0  0  0  0  0
   -7.8720   41.1090   73.8620 N   0  0  0  0  0  0  0  0  0  0  0  0
   -6.2610   42.3700   75.0440 N   0  0  0  0  0  2  0  0  0  0  0  0
   -5.3610   43.2330   74.5480 N   0  0  0  0  0  0  0  0  0  0  0  0
   -3.3300   44.6200   72.9220 C   0  0  0  0  0  2  0  0  0  0  0  0
   -2.2030   44.1290   72.0190 C   0  0  0  0  0  2  0  0  0  0  0  0
   -8.0190   40.6850   72.9590 H   0  0  0  0  0  0  0  0  0  0  0  0
   -7.9710   40.4800   74.6460 H   0  0  0  0  0  0  0  0  0  0  0  0
   -4.7570   43.7340   75.1830 H   0  0  0  0  0  0  0  0  0  0  0  0
   -2.2690   46.0590   70.3490 N   0  0  0  0  0  0  0  0  0  0  0  0
    0.2200   46.6320   70.1230 C   0  0  0  0  0  1  0  0  0  0  0  0
   -1.0370   46.5760   70.9890 C   0  0  0  0  0  2  0  0  0  0  0  0
   -2.3800   46.4660   68.9220 C   0  0  0  0  0  2  0  0  0  0  0  0
   -3.5580   47.3900   68.5510 C   0  0  0  0  0  2  0  0  0  0  0  0
   -3.2010   48.8590   68.6320 C   0  0  0  0  0  0  0  0  0  0  0  0
   -4.2030   49.8380   68.6740 C   0  0  0  0  0  3  0  0  0  0  0  0
   -3.8690   51.1930   68.7700 C   0  0  0  0  0  3  0  0  0  0  0  0
   -2.5310   51.5750   68.8220 C   0  0  0  0  0  0  0  0  0  0  0  0
   -2.0810   53.4050   68.9650 Br  0  0  0  0  0  0  0  0  0  0  0  0
   -1.5220   50.6160   68.7730 C   0  0  0  0  0  3  0  0  0  0  0  0
   -1.8570   49.2620   68.6760 C   0  0  0  0  0  3  0  0  0  0  0  0
  1 16  1  1  0  0  0
  1 12  1  0  0  0  0
  2  1  1  0  0  0  0
  2  3  1  0  0  0  0
  4  3  1  6  0  0  0
  4 11  1  0  0  0  0
  4  5  1  0  0  0  0
  5  6  1  1  0  0  0
  5 10  1  0  0  0  0
  6  7  2  0  0  0  0
  7  9  1  0  0  0  0
  8  7  1  0  0  0  0
  8 14  1  0  0  0  0
 10  9  1  0  0  0  0
 10 15  1  0  0  0  0
 12 11  1  0  0  0  0
 13  8  1  0  0  0  0
 16 18  1  0  0  0  0
 17 18  1  0  0  0  0
 19 16  1  0  0  0  0
 20 21  1  0  0  0  0
 20 19  1  0  0  0  0
 21 22  2  0  0  0  0
 21 27  1  0  0  0  0
 22 23  1  0  0  0  0
 23 24  2  0  0  0  0
 24 25  1  0  0  0  0
 26 24  1  0  0  0  0
 27 26  2  0  0  0  0
M  END
>  <MODEL>
6

>  <REMARK>
 VINA RESULT:      -8.0      4.909      6.835
  Name = CHEMBL4098997-73
  6 active torsions:
  status: ('A' for Active; 'I' for Inactive)
    1  A    between atoms: C_1  and  C_2
    2  A    between atoms: C_2  and  N_3
    3  A    between atoms: N_3  and  C_4
    4  A    between atoms: N_3  and  C_13
    5  A    between atoms: C_4  and  C_5
    6  A    between atoms: C_5  and  C_6
                            x       y       z     vdW  Elec       q    Type
                         _______ _______ _______ _____ _____    ______ ____

>  <TORSDO>
F 5

>  <rfscore_v2>
7.362861184704182

>  <vina_affinity>
-7.8011311985024765

>  <vina_gauss1>
87.28343898273678

>  <vina_gauss2>
1340.583414267459

>  <vina_repulsion>
1.6401011834858155

>  <vina_hydrophobic>
32.593092581972215

>  <vina_hydrogen>
0.49732312292980096

>  <vina_intra_gauss1>
28.018208794465536

>  <vina_intra_gauss2>
151.0954027346043

>  <vina_intra_repulsion>
0.20375155340545822

>  <vina_intra_hydrophobic>
14.857587061869166

>  <vina_intra_hydrogen>
0.0

>  <vina_num_rotors>
5.0

>  <rfscore_v3>
7.28325174703075

>  <PLEClinear_p5_l1_s65536>
3.8596263085347533

>  <nnscore>
7.229495239741998

$$$$
CHEMBL4098997-73
 OpenBabel12202021073D

 27 29  0  0  1  0  0  0  0  0999 V2000
    0.1390   50.4440   66.0400 C   0  0  2  0  0  3  0  0  0  0  0  0
    1.2700   49.3890   66.1190 C   0  0  0  0  0  2  0  0  0  0  0  0
    0.9000   48.1630   66.9560 C   0  0  0  0  0  2  0  0  0  0  0  0
    0.3920   48.5640   68.2690 N   0  0  1  0  0  0  0  0  0  0  0  0
    0.9580   48.0520   69.3920 C   0  0  2  0  0  3  0  0  0  0  0  0
    2.0910   47.3990   69.5150 N   0  0  0  0  0  0  0  0  0  0  0  0
    2.1720   47.1420   70.8470 C   0  0  0  0  0  0  0  0  0  0  0  0
    3.2570   46.5270   71.3110 N   0  0  0  0  0  0  0  0  0  0  0  0
    1.1650   47.5910   71.5800 N   0  0  0  0  0  2  0  0  0  0  0  0
    0.3860   48.1340   70.6320 N   0  0  0  0  0  0  0  0  0  0  0  0
   -0.6750   49.5580   68.2780 C   0  0  0  0  0  2  0  0  0  0  0  0
   -0.2100   50.7890   67.5070 C   0  0  0  0  0  2  0  0  0  0  0  0
    4.0650   46.5410   70.7080 H   0  0  0  0  0  0  0  0  0  0  0  0
    3.4590   46.6520   72.2930 H   0  0  0  0  0  0  0  0  0  0  0  0
   -0.5090   48.5220   70.8920 H   0  0  0  0  0  0  0  0  0  0  0  0
   -1.0460   50.0580   65.2070 N   0  0  0  0  0  0  0  0  0  0  0  0
   -3.4380   50.8070   64.6680 C   0  0  0  0  0  1  0  0  0  0  0  0
   -2.2660   50.7730   65.6470 C   0  0  0  0  0  2  0  0  0  0  0  0
   -0.8050   50.1950   63.7460 C   0  0  0  0  0  2  0  0  0  0  0  0
   -0.0370   51.4490   63.2800 C   0  0  0  0  0  2  0  0  0  0  0  0
    1.2080   51.1130   62.4860 C   0  0  0  0  0  0  0  0  0  0  0  0
    1.9650   49.9730   62.7900 C   0  0  0  0  0  3  0  0  0  0  0  0
    3.1020   49.6560   62.0410 C   0  0  0  0  0  3  0  0  0  0  0  0
    3.4910   50.4790   60.9860 C   0  0  0  0  0  0  0  0  0  0  0  0
    5.0210   50.0420   59.9670 Br  0  0  0  0  0  0  0  0  0  0  0  0
    2.7550   51.6200   60.6770 C   0  0  0  0  0  3  0  0  0  0  0  0
    1.6180   51.9370   61.4260 C   0  0  0  0  0  3  0  0  0  0  0  0
  1 16  1  1  0  0  0
  1  2  1  0  0  0  0
  1 12  1  0  0  0  0
  2  3  1  0  0  0  0
  4  3  1  6  0  0  0
  4 11  1  0  0  0  0
  4  5  1  0  0  0  0
  5  6  1  6  0  0  0
  5 10  1  0  0  0  0
  6  7  2  0  0  0  0
  7  8  1  0  0  0  0
  7  9  1  0  0  0  0
  8 14  1  0  0  0  0
 10 15  1  0  0  0  0
 10  9  1  0  0  0  0
 12 11  1  0  0  0  0
 13  8  1  0  0  0  0
 16 18  1  0  0  0  0
 17 18  1  0  0  0  0
 19 16  1  0  0  0  0
 20 19  1  0  0  0  0
 21 22  1  0  0  0  0
 21 20  1  0  0  0  0
 23 22  2  0  0  0  0
 24 23  1  0  0  0  0
 25 24  1  0  0  0  0
 26 24  2  0  0  0  0
 26 27  1  0  0  0  0
 27 21  2  0  0  0  0
M  END
>  <MODEL>
7

>  <REMARK>
 VINA RESULT:      -7.9      2.694      3.475
  Name = CHEMBL4098997-73
  6 active torsions:
  status: ('A' for Active; 'I' for Inactive)
    1  A    between atoms: C_1  and  C_2
    2  A    between atoms: C_2  and  N_3
    3  A    between atoms: N_3  and  C_4
    4  A    between atoms: N_3  and  C_13
    5  A    between atoms: C_4  and  C_5
    6  A    between atoms: C_5  and  C_6
                            x       y       z     vdW  Elec       q    Type
                         _______ _______ _______ _____ _____    ______ ____

>  <TORSDO>
F 5

>  <rfscore_v2>
6.863979143467636

>  <vina_affinity>
-7.751187683969523

>  <vina_gauss1>
90.06300829062386

>  <vina_gauss2>
1109.306969179282

>  <vina_repulsion>
0.9802366140106976

>  <vina_hydrophobic>
44.410662615425814

>  <vina_hydrogen>
0.6008986769792881

>  <vina_intra_gauss1>
26.729751941634092

>  <vina_intra_gauss2>
156.84908789307076

>  <vina_intra_repulsion>
0.7541001219581248

>  <vina_intra_hydrophobic>
15.947379266267104

>  <vina_intra_hydrogen>
0.0

>  <vina_num_rotors>
5.0

>  <rfscore_v3>
6.993897136419143

>  <PLEClinear_p5_l1_s65536>
2.200589178599215

>  <nnscore>
7.4719528449908905

$$$$
CHEMBL4098997-73
 OpenBabel12202021073D

 27 29  0  0  1  0  0  0  0  0999 V2000
   -1.4830   49.6890   68.8420 C   0  0  2  0  0  3  0  0  0  0  0  0
   -3.0170   49.7490   68.6300 C   0  0  0  0  0  2  0  0  0  0  0  0
   -3.4470   49.3900   67.2060 C   0  0  0  0  0  2  0  0  0  0  0  0
   -2.6980   50.1750   66.2230 N   0  0  1  0  0  0  0  0  0  0  0  0
   -3.3700   50.8990   65.2910 C   0  0  2  0  0  3  0  0  0  0  0  0
   -4.6450   51.2140   65.2580 N   0  0  0  0  0  0  0  0  0  0  0  0
   -4.7650   51.9540   64.1240 C   0  0  0  0  0  0  0  0  0  0  0  0
   -5.9520   52.4800   63.8320 N   0  0  0  0  0  0  0  0  0  0  0  0
   -3.6480   52.1340   63.4360 N   0  0  0  0  0  2  0  0  0  0  0  0
   -2.7800   51.4240   64.1740 N   0  0  0  0  0  0  0  0  0  0  0  0
   -1.2470   50.1720   66.3580 C   0  0  0  0  0  2  0  0  0  0  0  0
   -0.8800   50.6250   67.7680 C   0  0  0  0  0  2  0  0  0  0  0  0
   -6.6100   52.5370   64.5940 H   0  0  0  0  0  0  0  0  0  0  0  0
   -5.9490   53.2790   63.2140 H   0  0  0  0  0  0  0  0  0  0  0  0
   -1.8260   51.3310   63.8570 H   0  0  0  0  0  0  0  0  0  0  0  0
   -0.8870   48.3140   68.8560 N   0  0  0  0  0  0  0  0  0  0  0  0
    1.1530   47.9180   70.3570 C   0  0  0  0  0  1  0  0  0  0  0  0
    0.5850   48.3700   69.0140 C   0  0  0  0  0  2  0  0  0  0  0  0
   -1.5280   47.4060   69.8440 C   0  0  0  0  0  2  0  0  0  0  0  0
   -1.6820   45.9270   69.4330 C   0  0  0  0  0  2  0  0  0  0  0  0
   -3.1280   45.5110   69.2680 C   0  0  0  0  0  0  0  0  0  0  0  0
   -3.9150   46.0500   68.2390 C   0  0  0  0  0  3  0  0  0  0  0  0
   -5.2440   45.6480   68.0770 C   0  0  0  0  0  3  0  0  0  0  0  0
   -5.7950   44.7060   68.9440 C   0  0  0  0  0  0  0  0  0  0  0  0
   -7.5870   44.1540   68.7160 Br  0  0  0  0  0  0  0  0  0  0  0  0
   -5.0300   44.1670   69.9760 C   0  0  0  0  0  3  0  0  0  0  0  0
   -3.7020   44.5700   70.1380 C   0  0  0  0  0  3  0  0  0  0  0  0
  1 16  1  6  0  0  0
  2  1  1  0  0  0  0
  3  2  1  0  0  0  0
  4 11  1  1  0  0  0
  4  3  1  0  0  0  0
  5  6  1  6  0  0  0
  5  4  1  0  0  0  0
  7  6  2  0  0  0  0
  8  7  1  0  0  0  0
  8 13  1  0  0  0  0
  9  7  1  0  0  0  0
  9 10  1  0  0  0  0
 10  5  1  0  0  0  0
 11 12  1  0  0  0  0
 12  1  1  0  0  0  0
 14  8  1  0  0  0  0
 15 10  1  0  0  0  0
 16 18  1  0  0  0  0
 16 19  1  0  0  0  0
 18 17  1  0  0  0  0
 20 19  1  0  0  0  0
 21 20  1  0  0  0  0
 21 27  1  0  0  0  0
 22 21  2  0  0  0  0
 23 22  1  0  0  0  0
 23 24  2  0  0  0  0
 24 26  1  0  0  0  0
 25 24  1  0  0  0  0
 26 27  2  0  0  0  0
M  END
>  <MODEL>
8

>  <REMARK>
 VINA RESULT:      -7.9      4.883      8.373
  Name = CHEMBL4098997-73
  6 active torsions:
  status: ('A' for Active; 'I' for Inactive)
    1  A    between atoms: C_1  and  C_2
    2  A    between atoms: C_2  and  N_3
    3  A    between atoms: N_3  and  C_4
    4  A    between atoms: N_3  and  C_13
    5  A    between atoms: C_4  and  C_5
    6  A    between atoms: C_5  and  C_6
                            x       y       z     vdW  Elec       q    Type
                         _______ _______ _______ _____ _____    ______ ____

>  <TORSDO>
F 5

>  <rfscore_v2>
6.790890826284821

>  <vina_affinity>
-7.678402599710319

>  <vina_gauss1>
75.9270431519164

>  <vina_gauss2>
1087.029649153877

>  <vina_repulsion>
0.6747383404708616

>  <vina_hydrophobic>
48.968270230577296

>  <vina_hydrogen>
0.7840776067898091

>  <vina_intra_gauss1>
25.56121790201116

>  <vina_intra_gauss2>
178.67079452195554

>  <vina_intra_repulsion>
0.26263964002256146

>  <vina_intra_hydrophobic>
14.51495513472587

>  <vina_intra_hydrogen>
0.0

>  <vina_num_rotors>
5.0

>  <rfscore_v3>
6.576711270840275

>  <PLEClinear_p5_l1_s65536>
0.7480413995826041

>  <nnscore>
6.940665810559882

$$$$
CHEMBL4098997-73
 OpenBabel12202021073D

 27 29  0  0  1  0  0  0  0  0999 V2000
   -2.1650   49.1990   68.6200 C   0  0  2  0  0  3  0  0  0  0  0  0
   -1.6530   47.9770   69.4220 C   0  0  0  0  0  2  0  0  0  0  0  0
   -2.0560   46.6350   68.8070 C   0  0  0  0  0  2  0  0  0  0  0  0
   -3.4960   46.5930   68.5480 N   0  0  1  0  0  0  0  0  0  0  0  0
   -4.2380   45.5730   69.0520 C   0  0  2  0  0  3  0  0  0  0  0  0
   -3.9090   44.6940   69.9690 N   0  0  0  0  0  0  0  0  0  0  0  0
   -5.0230   43.9260   70.0960 C   0  0  0  0  0  0  0  0  0  0  0  0
   -5.0280   42.9580   71.0090 N   0  0  0  0  0  0  0  0  0  0  0  0
   -6.0420   44.2630   69.3200 N   0  0  0  0  0  2  0  0  0  0  0  0
   -5.5100   45.2890   68.6370 N   0  0  0  0  0  0  0  0  0  0  0  0
   -4.0550   47.7120   67.8000 C   0  0  0  0  0  2  0  0  0  0  0  0
   -3.6970   49.0130   68.5120 C   0  0  0  0  0  2  0  0  0  0  0  0
   -4.3300   43.0290   71.7320 H   0  0  0  0  0  0  0  0  0  0  0  0
   -5.9340   42.6430   71.3250 H   0  0  0  0  0  0  0  0  0  0  0  0
   -6.0540   45.7300   67.9100 H   0  0  0  0  0  0  0  0  0  0  0  0
   -1.4870   49.4380   67.3050 N   0  0  0  0  0  0  0  0  0  0  0  0
   -0.6560   51.8500   67.0540 C   0  0  0  0  0  1  0  0  0  0  0  0
   -1.7470   50.8090   66.8090 C   0  0  0  0  0  2  0  0  0  0  0  0
   -0.0370   49.1080   67.3240 C   0  0  0  0  0  2  0  0  0  0  0  0
    0.4140   47.9030   66.4730 C   0  0  0  0  0  2  0  0  0  0  0  0
    1.1310   48.3150   65.2050 C   0  0  0  0  0  0  0  0  0  0  0  0
    0.9140   49.5800   64.6400 C   0  0  0  0  0  3  0  0  0  0  0  0
    1.5930   49.9650   63.4790 C   0  0  0  0  0  3  0  0  0  0  0  0
    2.4910   49.0860   62.8770 C   0  0  0  0  0  0  0  0  0  0  0  0
    3.4170   49.6130   61.3160 Br  0  0  0  0  0  0  0  0  0  0  0  0
    2.7110   47.8230   63.4200 C   0  0  0  0  0  3  0  0  0  0  0  0
    2.0320   47.4390   64.5790 C   0  0  0  0  0  3  0  0  0  0  0  0
  1 16  1  6  0  0  0
  1  2  1  0  0  0  0
  3  2  1  0  0  0  0
  4 11  1  1  0  0  0
  4  3  1  0  0  0  0
  4  5  1  0  0  0  0
  5  6  1  6  0  0  0
  6  7  2  0  0  0  0
  7  8  1  0  0  0  0
  8 14  1  0  0  0  0
  8 13  1  0  0  0  0
  9  7  1  0  0  0  0
 10  5  1  0  0  0  0
 10  9  1  0  0  0  0
 11 12  1  0  0  0  0
 12  1  1  0  0  0  0
 15 10  1  0  0  0  0
 16 19  1  0  0  0  0
 18 17  1  0  0  0  0
 18 16  1  0  0  0  0
 20 19  1  0  0  0  0
 21 20  1  0  0  0  0
 22 21  1  0  0  0  0
 23 22  2  0  0  0  0
 24 26  2  0  0  0  0
 24 23  1  0  0  0  0
 25 24  1  0  0  0  0
 26 27  1  0  0  0  0
 27 21  2  0  0  0  0
M  END
>  <MODEL>
9

>  <REMARK>
 VINA RESULT:      -7.5      1.551      1.967
  Name = CHEMBL4098997-73
  6 active torsions:
  status: ('A' for Active; 'I' for Inactive)
    1  A    between atoms: C_1  and  C_2
    2  A    between atoms: C_2  and  N_3
    3  A    between atoms: N_3  and  C_4
    4  A    between atoms: N_3  and  C_13
    5  A    between atoms: C_4  and  C_5
    6  A    between atoms: C_5  and  C_6
                            x       y       z     vdW  Elec       q    Type
                         _______ _______ _______ _____ _____    ______ ____

>  <TORSDO>
F 5

>  <rfscore_v2>
6.8027040414585365

>  <vina_affinity>
-7.4747535175030375

>  <vina_gauss1>
70.22941815890692

>  <vina_gauss2>
1157.5737736435437

>  <vina_repulsion>
0.7205392648934572

>  <vina_hydrophobic>
37.049003270446626

>  <vina_hydrogen>
0.8393593366826771

>  <vina_intra_gauss1>
26.470486786100754

>  <vina_intra_gauss2>
155.44677582198727

>  <vina_intra_repulsion>
0.4017507318476472

>  <vina_intra_hydrophobic>
15.338056342102227

>  <vina_intra_hydrogen>
0.0

>  <vina_num_rotors>
5.0

>  <rfscore_v3>
6.875303963330791

>  <PLEClinear_p5_l1_s65536>
3.9537296890713516

>  <nnscore>
6.299944037405798

$$$$
