CHEMBL4091907-1545
 OpenBabel12202021053D

 28 31  0  0  1  0  0  0  0  0999 V2000
    0.0520   50.3720   66.2540 C   0  0  2  0  0  3  0  0  0  0  0  0
    1.2530   49.4170   66.4700 C   0  0  0  0  0  2  0  0  0  0  0  0
    0.8000   48.0830   67.0610 C   0  0  0  0  0  2  0  0  0  0  0  0
    0.1800   48.3260   68.3680 N   0  0  1  0  0  0  0  0  0  0  0  0
    0.8570   47.9500   69.4780 C   0  0  2  0  0  3  0  0  0  0  0  0
    2.0500   47.4190   69.5840 N   0  0  0  0  0  0  0  0  0  0  0  0
    2.1920   47.1800   70.9150 C   0  0  0  0  0  0  0  0  0  0  0  0
    3.3150   46.6260   71.3620 N   0  0  0  0  0  0  0  0  0  0  0  0
    1.1720   47.5620   71.6750 N   0  0  0  0  0  2  0  0  0  0  0  0
    0.3190   48.0170   70.7430 N   0  0  0  0  0  0  0  0  0  0  0  0
   -0.9120   49.3040   68.3670 C   0  0  0  0  0  2  0  0  0  0  0  0
   -0.4610   50.6120   67.7010 C   0  0  0  0  0  2  0  0  0  0  0  0
    4.1180   46.6660   70.7520 H   0  0  0  0  0  0  0  0  0  0  0  0
    3.5150   46.7230   72.3470 H   0  0  0  0  0  0  0  0  0  0  0  0
   -0.6020   48.3210   71.0200 H   0  0  0  0  0  0  0  0  0  0  0  0
   -2.2240   50.8130   65.4430 C   0  0  0  0  0  1  0  0  0  0  0  0
   -1.0430   49.9240   65.3310 N   0  0  0  0  0  0  0  0  0  0  0  0
   -0.6970   49.8960   63.8830 C   0  0  0  0  0  2  0  0  0  0  0  0
    0.3740   50.8760   63.3950 C   0  0  0  0  0  2  0  0  0  0  0  0
    1.6310   50.1920   62.9280 C   0  0  0  0  0  0  0  0  0  0  0  0
    2.0500   49.0000   63.5370 C   0  0  0  0  0  3  0  0  0  0  0  0
    3.1750   48.3280   63.0640 C   0  0  0  0  0  3  0  0  0  0  0  0
    3.9130   48.8270   61.9820 C   0  0  0  0  0  0  0  0  0  0  0  0
    3.4830   50.0310   61.3960 C   0  0  0  0  0  3  0  0  0  0  0  0
    2.3590   50.7100   61.8600 C   0  0  0  0  0  3  0  0  0  0  0  0
    5.1450   48.1330   61.4670 C   0  0  0  0  0  3  0  0  0  0  0  0
    4.9840   47.0160   60.4610 C   0  0  0  0  0  2  0  0  0  0  0  0
    5.4750   46.7100   61.8440 C   0  0  0  0  0  2  0  0  0  0  0  0
  1 17  1  6  0  0  0
  1  2  1  0  0  0  0
  1 12  1  0  0  0  0
  2  3  1  0  0  0  0
  4  3  1  6  0  0  0
  4  5  1  0  0  0  0
  5  6  1  6  0  0  0
  5 10  1  0  0  0  0
  6  7  2  0  0  0  0
  7  8  1  0  0  0  0
  7  9  1  0  0  0  0
  8 14  1  0  0  0  0
 10 15  1  0  0  0  0
 10  9  1  0  0  0  0
 11  4  1  0  0  0  0
 12 11  1  0  0  0  0
 13  8  1  0  0  0  0
 17 16  1  0  0  0  0
 18 17  1  0  0  0  0
 19 18  1  0  0  0  0
 20 19  1  0  0  0  0
 20 21  1  0  0  0  0
 22 21  2  0  0  0  0
 23 22  1  0  0  0  0
 24 25  1  0  0  0  0
 24 23  2  0  0  0  0
 25 20  2  0  0  0  0
 26 28  1  0  0  0  0
 26 23  1  0  0  0  0
 27 26  1  0  0  0  0
 27 28  1  0  0  0  0
M  END
>  <MODEL>
1

>  <REMARK>
 VINA RESULT:      -9.0      0.000      0.000
  Name = CHEMBL4091907-1545
  6 active torsions:
  status: ('A' for Active; 'I' for Inactive)
    1  A    between atoms: C_1  and  N_2
    2  A    between atoms: N_2  and  C_3
    3  A    between atoms: N_2  and  C_14
    4  A    between atoms: C_3  and  C_4
    5  A    between atoms: C_4  and  C_5
    6  A    between atoms: C_8  and  C_9
                            x       y       z     vdW  Elec       q    Type
                         _______ _______ _______ _____ _____    ______ ____

>  <TORSDO>
F 5

>  <rfscore_v2>
7.229650206848697

>  <vina_affinity>
-8.353250305717651

>  <vina_gauss1>
90.57523846393065

>  <vina_gauss2>
1263.324446388117

>  <vina_repulsion>
1.0667563688931798

>  <vina_hydrophobic>
61.251922450984274

>  <vina_hydrogen>
0.49087121326517064

>  <vina_intra_gauss1>
29.218258888651793

>  <vina_intra_gauss2>
168.73451907413698

>  <vina_intra_repulsion>
1.4914621775735826

>  <vina_intra_hydrophobic>
19.687570036745676

>  <vina_intra_hydrogen>
0.0

>  <vina_num_rotors>
6.0

>  <rfscore_v3>
7.0292385664335715

>  <PLEClinear_p5_l1_s65536>
3.1364303813404724

>  <nnscore>
7.5596353855144445

$$$$
CHEMBL4091907-1545
 OpenBabel12202021053D

 28 31  0  0  1  0  0  0  0  0999 V2000
   -1.1910   48.5570   68.3500 C   0  0  2  0  0  3  0  0  0  0  0  0
   -0.4840   47.6570   69.3940 C   0  0  0  0  0  2  0  0  0  0  0  0
   -0.7200   46.1760   69.0990 C   0  0  0  0  0  2  0  0  0  0  0  0
   -2.1590   45.9000   69.1710 N   0  0  1  0  0  0  0  0  0  0  0  0
   -2.6230   45.1890   70.2260 C   0  0  2  0  0  3  0  0  0  0  0  0
   -1.9740   44.7240   71.2650 N   0  0  0  0  0  0  0  0  0  0  0  0
   -2.9140   44.0320   71.9630 C   0  0  0  0  0  0  0  0  0  0  0  0
   -2.5680   43.4180   73.0900 N   0  0  0  0  0  0  0  0  0  0  0  0
   -4.1390   44.0580   71.4500 N   0  0  0  0  0  2  0  0  0  0  0  0
   -3.9290   44.7680   70.3300 N   0  0  0  0  0  0  0  0  0  0  0  0
   -3.0000   46.7500   68.3230 C   0  0  0  0  0  2  0  0  0  0  0  0
   -2.6940   48.2330   68.5790 C   0  0  0  0  0  2  0  0  0  0  0  0
   -1.7110   43.7190   73.5290 H   0  0  0  0  0  0  0  0  0  0  0  0
   -3.3130   43.1660   73.7240 H   0  0  0  0  0  0  0  0  0  0  0  0
   -4.6860   44.9000   69.6780 H   0  0  0  0  0  0  0  0  0  0  0  0
   -1.4850   49.4100   66.0660 C   0  0  0  0  0  1  0  0  0  0  0  0
   -0.7930   48.4090   66.9110 N   0  0  0  0  0  0  0  0  0  0  0  0
    0.6590   48.5730   66.6220 C   0  0  0  0  0  2  0  0  0  0  0  0
    1.0430   49.3870   65.3830 C   0  0  0  0  0  2  0  0  0  0  0  0
    1.9190   48.6240   64.4250 C   0  0  0  0  0  0  0  0  0  0  0  0
    2.1850   47.2660   64.6460 C   0  0  0  0  0  3  0  0  0  0  0  0
    2.9400   46.5390   63.7260 C   0  0  0  0  0  3  0  0  0  0  0  0
    3.4510   47.1470   62.5720 C   0  0  0  0  0  0  0  0  0  0  0  0
    3.1840   48.5130   62.3770 C   0  0  0  0  0  3  0  0  0  0  0  0
    2.4300   49.2480   63.2890 C   0  0  0  0  0  3  0  0  0  0  0  0
    4.2880   46.3910   61.5750 C   0  0  0  0  0  3  0  0  0  0  0  0
    5.7800   46.2940   61.8030 C   0  0  0  0  0  2  0  0  0  0  0  0
    5.2520   47.0910   60.6500 C   0  0  0  0  0  2  0  0  0  0  0  0
  1 17  1  6  0  0  0
  1 12  1  0  0  0  0
  1  2  1  0  0  0  0
  3  2  1  0  0  0  0
  4  3  1  1  0  0  0
  4 11  1  0  0  0  0
  4  5  1  0  0  0  0
  5 10  1  0  0  0  0
  5  6  1  6  0  0  0
  6  7  2  0  0  0  0
  7  8  1  0  0  0  0
  8 13  1  0  0  0  0
  8 14  1  0  0  0  0
  9  7  1  0  0  0  0
 10  9  1  0  0  0  0
 11 12  1  0  0  0  0
 15 10  1  0  0  0  0
 16 17  1  0  0  0  0
 18 17  1  0  0  0  0
 19 18  1  0  0  0  0
 20 21  1  0  0  0  0
 20 19  1  0  0  0  0
 22 21  2  0  0  0  0
 23 22  1  0  0  0  0
 24 23  2  0  0  0  0
 24 25  1  0  0  0  0
 25 20  2  0  0  0  0
 26 27  1  0  0  0  0
 26 23  1  0  0  0  0
 28 26  1  0  0  0  0
 28 27  1  0  0  0  0
M  END
>  <MODEL>
2

>  <REMARK>
 VINA RESULT:      -8.7      3.013      3.615
  Name = CHEMBL4091907-1545
  6 active torsions:
  status: ('A' for Active; 'I' for Inactive)
    1  A    between atoms: C_1  and  N_2
    2  A    between atoms: N_2  and  C_3
    3  A    between atoms: N_2  and  C_14
    4  A    between atoms: C_3  and  C_4
    5  A    between atoms: C_4  and  C_5
    6  A    between atoms: C_8  and  C_9
                            x       y       z     vdW  Elec       q    Type
                         _______ _______ _______ _____ _____    ______ ____

>  <TORSDO>
F 5

>  <rfscore_v2>
7.247209400765891

>  <vina_affinity>
-7.8716280919473745

>  <vina_gauss1>
83.15738107093023

>  <vina_gauss2>
1315.8812347347962

>  <vina_repulsion>
1.6364784958959897

>  <vina_hydrophobic>
52.97687950584001

>  <vina_hydrogen>
0.6803629995943548

>  <vina_intra_gauss1>
20.373515913152545

>  <vina_intra_gauss2>
139.3733385903363

>  <vina_intra_repulsion>
0.01530659230391245

>  <vina_intra_hydrophobic>
10.66087935969956

>  <vina_intra_hydrogen>
0.0

>  <vina_num_rotors>
6.0

>  <rfscore_v3>
7.03977685575536

>  <PLEClinear_p5_l1_s65536>
3.1187867689575723

>  <nnscore>
6.578936641646902

$$$$
CHEMBL4091907-1545
 OpenBabel12202021053D

 28 31  0  0  1  0  0  0  0  0999 V2000
   -4.4150   48.4520   67.3610 C   0  0  2  0  0  3  0  0  0  0  0  0
   -2.9630   48.8280   66.9690 C   0  0  0  0  0  2  0  0  0  0  0  0
   -2.1840   49.3570   68.1720 C   0  0  0  0  0  2  0  0  0  0  0  0
   -2.8430   50.5700   68.6700 N   0  0  1  0  0  0  0  0  0  0  0  0
   -2.2360   51.7610   68.4600 C   0  0  2  0  0  3  0  0  0  0  0  0
   -1.1250   52.0260   67.8160 N   0  0  0  0  0  0  0  0  0  0  0  0
   -0.9540   53.3650   67.9820 C   0  0  0  0  0  0  0  0  0  0  0  0
    0.1070   53.9580   67.4450 N   0  0  0  0  0  0  0  0  0  0  0  0
   -1.9130   53.9820   68.6640 N   0  0  0  0  0  2  0  0  0  0  0  0
   -2.7000   52.9430   68.9900 N   0  0  0  0  0  0  0  0  0  0  0  0
   -4.2670   50.4210   68.9830 C   0  0  0  0  0  2  0  0  0  0  0  0
   -5.0200   49.8170   67.7890 C   0  0  0  0  0  2  0  0  0  0  0  0
    0.5850   53.4600   66.7090 H   0  0  0  0  0  0  0  0  0  0  0  0
    0.0650   54.9610   67.3320 H   0  0  0  0  0  0  0  0  0  0  0  0
   -3.4990   53.0950   69.5850 H   0  0  0  0  0  0  0  0  0  0  0  0
   -6.0480   47.1410   68.6430 C   0  0  0  0  0  1  0  0  0  0  0  0
   -4.6070   47.3930   68.4070 N   0  0  0  0  0  0  0  0  0  0  0  0
   -4.0100   46.0640   68.0990 C   0  0  0  0  0  2  0  0  0  0  0  0
   -2.8180   45.6130   68.9500 C   0  0  0  0  0  2  0  0  0  0  0  0
   -3.2300   44.9630   70.2430 C   0  0  0  0  0  0  0  0  0  0  0  0
   -2.3320   44.9020   71.3170 C   0  0  0  0  0  3  0  0  0  0  0  0
   -2.7310   44.3620   72.5390 C   0  0  0  0  0  3  0  0  0  0  0  0
   -4.0290   43.8640   72.7170 C   0  0  0  0  0  0  0  0  0  0  0  0
   -4.9100   43.9210   71.6220 C   0  0  0  0  0  3  0  0  0  0  0  0
   -4.5210   44.4610   70.3990 C   0  0  0  0  0  3  0  0  0  0  0  0
   -4.4780   43.2540   74.0170 C   0  0  0  0  0  3  0  0  0  0  0  0
   -4.8580   41.7900   74.0420 C   0  0  0  0  0  2  0  0  0  0  0  0
   -5.9090   42.8370   74.2500 C   0  0  0  0  0  2  0  0  0  0  0  0
  1 12  1  0  0  0  0
  1 17  1  1  0  0  0
  2  1  1  0  0  0  0
  2  3  1  0  0  0  0
  4  3  1  6  0  0  0
  4 11  1  0  0  0  0
  5  6  1  1  0  0  0
  5  4  1  0  0  0  0
  5 10  1  0  0  0  0
  6  7  2  0  0  0  0
  7  9  1  0  0  0  0
  8  7  1  0  0  0  0
  9 10  1  0  0  0  0
 10 15  1  0  0  0  0
 12 11  1  0  0  0  0
 13  8  1  0  0  0  0
 14  8  1  0  0  0  0
 17 16  1  0  0  0  0
 18 17  1  0  0  0  0
 18 19  1  0  0  0  0
 19 20  1  0  0  0  0
 20 25  2  0  0  0  0
 20 21  1  0  0  0  0
 21 22  2  0  0  0  0
 22 23  1  0  0  0  0
 23 26  1  0  0  0  0
 24 23  2  0  0  0  0
 25 24  1  0  0  0  0
 26 27  1  0  0  0  0
 26 28  1  0  0  0  0
 27 28  1  0  0  0  0
M  END
>  <MODEL>
3

>  <REMARK>
 VINA RESULT:      -8.6      6.150      9.740
  Name = CHEMBL4091907-1545
  6 active torsions:
  status: ('A' for Active; 'I' for Inactive)
    1  A    between atoms: C_1  and  N_2
    2  A    between atoms: N_2  and  C_3
    3  A    between atoms: N_2  and  C_14
    4  A    between atoms: C_3  and  C_4
    5  A    between atoms: C_4  and  C_5
    6  A    between atoms: C_8  and  C_9
                            x       y       z     vdW  Elec       q    Type
                         _______ _______ _______ _____ _____    ______ ____

>  <TORSDO>
F 5

>  <rfscore_v2>
7.476481323232319

>  <vina_affinity>
-7.826316446109335

>  <vina_gauss1>
97.36176450200158

>  <vina_gauss2>
1327.8242206098316

>  <vina_repulsion>
1.2892316823309482

>  <vina_hydrophobic>
33.15736287222643

>  <vina_hydrogen>
0.2978413976466315

>  <vina_intra_gauss1>
26.20158353890188

>  <vina_intra_gauss2>
163.54095233268305

>  <vina_intra_repulsion>
0.18190865114162602

>  <vina_intra_hydrophobic>
12.12809255812618

>  <vina_intra_hydrogen>
0.0

>  <vina_num_rotors>
6.0

>  <rfscore_v3>
7.111646472638476

>  <PLEClinear_p5_l1_s65536>
3.013690903881541

>  <nnscore>
7.223414331036047

$$$$
CHEMBL4091907-1545
 OpenBabel12202021053D

 28 31  0  0  1  0  0  0  0  0999 V2000
   -0.6080   50.1810   68.2300 C   0  0  2  0  0  3  0  0  0  0  0  0
    0.0180   48.8000   68.5480 C   0  0  0  0  0  2  0  0  0  0  0  0
   -0.6530   47.6890   67.7420 C   0  0  0  0  0  2  0  0  0  0  0  0
   -2.0740   47.6300   68.1040 N   0  0  1  0  0  0  0  0  0  0  0  0
   -2.5030   46.5840   68.8480 C   0  0  2  0  0  3  0  0  0  0  0  0
   -1.8170   45.5920   69.3590 N   0  0  0  0  0  0  0  0  0  0  0  0
   -2.7590   44.8010   69.9410 C   0  0  0  0  0  0  0  0  0  0  0  0
   -2.3830   43.6830   70.5550 N   0  0  0  0  0  0  0  0  0  0  0  0
   -4.0070   45.2500   69.8650 N   0  0  0  0  0  2  0  0  0  0  0  0
   -3.8300   46.3650   69.1380 N   0  0  0  0  0  0  0  0  0  0  0  0
   -2.8020   48.8960   67.9730 C   0  0  0  0  0  2  0  0  0  0  0  0
   -2.0720   50.0160   68.7260 C   0  0  0  0  0  2  0  0  0  0  0  0
   -1.4090   43.6090   70.8120 H   0  0  0  0  0  0  0  0  0  0  0  0
   -3.0350   43.2770   71.2100 H   0  0  0  0  0  0  0  0  0  0  0  0
   -4.6340   46.9020   68.8510 H   0  0  0  0  0  0  0  0  0  0  0  0
   -0.2580   52.1280   66.7750 C   0  0  0  0  0  1  0  0  0  0  0  0
   -0.5410   50.6730   66.8150 N   0  0  0  0  0  0  0  0  0  0  0  0
    0.4980   50.0380   65.9580 C   0  0  0  0  0  2  0  0  0  0  0  0
    0.2870   50.0870   64.4410 C   0  0  0  0  0  2  0  0  0  0  0  0
    1.4410   49.5090   63.6670 C   0  0  0  0  0  0  0  0  0  0  0  0
    2.0630   50.2640   62.6640 C   0  0  0  0  0  3  0  0  0  0  0  0
    3.1750   49.7590   61.9900 C   0  0  0  0  0  3  0  0  0  0  0  0
    3.6870   48.4910   62.2950 C   0  0  0  0  0  0  0  0  0  0  0  0
    3.0400   47.7440   63.2950 C   0  0  0  0  0  3  0  0  0  0  0  0
    1.9300   48.2410   63.9740 C   0  0  0  0  0  3  0  0  0  0  0  0
    4.8710   47.9130   61.5670 C   0  0  0  0  0  3  0  0  0  0  0  0
    4.6820   46.6480   60.7600 C   0  0  0  0  0  2  0  0  0  0  0  0
    5.5210   46.6220   62.0010 C   0  0  0  0  0  2  0  0  0  0  0  0
  1 17  1  6  0  0  0
  1  2  1  0  0  0  0
  1 12  1  0  0  0  0
  3  2  1  0  0  0  0
  4  3  1  1  0  0  0
  4  5  1  0  0  0  0
  5 10  1  0  0  0  0
  5  6  1  6  0  0  0
  6  7  2  0  0  0  0
  7  8  1  0  0  0  0
  8 13  1  0  0  0  0
  8 14  1  0  0  0  0
  9  7  1  0  0  0  0
 10  9  1  0  0  0  0
 11  4  1  0  0  0  0
 11 12  1  0  0  0  0
 15 10  1  0  0  0  0
 16 17  1  0  0  0  0
 18 17  1  0  0  0  0
 19 18  1  0  0  0  0
 20 25  1  0  0  0  0
 20 19  1  0  0  0  0
 21 20  2  0  0  0  0
 22 23  2  0  0  0  0
 22 21  1  0  0  0  0
 23 24  1  0  0  0  0
 24 25  2  0  0  0  0
 26 28  1  0  0  0  0
 26 23  1  0  0  0  0
 27 26  1  0  0  0  0
 27 28  1  0  0  0  0
M  END
>  <MODEL>
4

>  <REMARK>
 VINA RESULT:      -8.6      2.422      3.063
  Name = CHEMBL4091907-1545
  6 active torsions:
  status: ('A' for Active; 'I' for Inactive)
    1  A    between atoms: C_1  and  N_2
    2  A    between atoms: N_2  and  C_3
    3  A    between atoms: N_2  and  C_14
    4  A    between atoms: C_3  and  C_4
    5  A    between atoms: C_4  and  C_5
    6  A    between atoms: C_8  and  C_9
                            x       y       z     vdW  Elec       q    Type
                         _______ _______ _______ _____ _____    ______ ____

>  <TORSDO>
F 5

>  <rfscore_v2>
7.014857355144854

>  <vina_affinity>
-8.027071575219884

>  <vina_gauss1>
78.72171088909082

>  <vina_gauss2>
1259.3581804657997

>  <vina_repulsion>
1.6753860753324215

>  <vina_hydrophobic>
55.0749459241626

>  <vina_hydrogen>
1.7342185359591664

>  <vina_intra_gauss1>
17.949039810300597

>  <vina_intra_gauss2>
152.0494437859053

>  <vina_intra_repulsion>
0.8032371171335669

>  <vina_intra_hydrophobic>
12.59256274771792

>  <vina_intra_hydrogen>
0.0

>  <vina_num_rotors>
6.0

>  <rfscore_v3>
6.914570947496951

>  <PLEClinear_p5_l1_s65536>
2.6373772527349852

>  <nnscore>
6.510301366189063

$$$$
CHEMBL4091907-1545
 OpenBabel12202021053D

 28 31  0  0  1  0  0  0  0  0999 V2000
   -0.9980   49.7000   68.4980 C   0  0  2  0  0  3  0  0  0  0  0  0
   -2.5170   49.9810   68.3700 C   0  0  0  0  0  2  0  0  0  0  0  0
   -3.1000   49.3150   67.1250 C   0  0  0  0  0  2  0  0  0  0  0  0
   -2.4410   49.8670   65.9370 N   0  0  1  0  0  0  0  0  0  0  0  0
   -3.1500   50.7010   65.1400 C   0  0  2  0  0  3  0  0  0  0  0  0
   -4.3720   51.1510   65.2870 N   0  0  0  0  0  0  0  0  0  0  0  0
   -4.5940   51.8840   64.1630 C   0  0  0  0  0  0  0  0  0  0  0  0
   -5.7700   52.4820   63.9960 N   0  0  0  0  0  0  0  0  0  0  0  0
   -3.5710   51.9600   63.3200 N   0  0  0  0  0  2  0  0  0  0  0  0
   -2.6740   51.1750   63.9390 N   0  0  0  0  0  0  0  0  0  0  0  0
   -0.9770   49.7890   65.9430 C   0  0  0  0  0  2  0  0  0  0  0  0
   -0.4140   50.3950   67.2370 C   0  0  0  0  0  2  0  0  0  0  0  0
   -6.3390   52.6070   64.8200 H   0  0  0  0  0  0  0  0  0  0  0  0
   -5.8120   53.2340   63.3230 H   0  0  0  0  0  0  0  0  0  0  0  0
   -1.7930   50.9800   63.4900 H   0  0  0  0  0  0  0  0  0  0  0  0
    0.9200   48.1820   68.7170 C   0  0  0  0  0  1  0  0  0  0  0  0
   -0.5560   48.2710   68.6150 N   0  0  0  0  0  0  0  0  0  0  0  0
   -1.0870   47.5240   69.7880 C   0  0  0  0  0  2  0  0  0  0  0  0
   -1.2090   46.0030   69.6580 C   0  0  0  0  0  2  0  0  0  0  0  0
   -2.6350   45.5320   69.5550 C   0  0  0  0  0  0  0  0  0  0  0  0
   -3.4810   46.0650   68.5720 C   0  0  0  0  0  3  0  0  0  0  0  0
   -4.7820   45.5840   68.4290 C   0  0  0  0  0  3  0  0  0  0  0  0
   -5.2720   44.5700   69.2630 C   0  0  0  0  0  0  0  0  0  0  0  0
   -4.4110   44.0600   70.2510 C   0  0  0  0  0  3  0  0  0  0  0  0
   -3.1090   44.5320   70.4010 C   0  0  0  0  0  3  0  0  0  0  0  0
   -6.6790   44.0490   69.1450 C   0  0  0  0  0  3  0  0  0  0  0  0
   -7.6850   44.4240   70.2100 C   0  0  0  0  0  2  0  0  0  0  0  0
   -7.2250   43.0040   70.0860 C   0  0  0  0  0  2  0  0  0  0  0  0
  1 17  1  6  0  0  0
  2  1  1  0  0  0  0
  3  2  1  0  0  0  0
  4 11  1  1  0  0  0
  4  3  1  0  0  0  0
  5  6  1  6  0  0  0
  5  4  1  0  0  0  0
  7  6  2  0  0  0  0
  8  7  1  0  0  0  0
  8 13  1  0  0  0  0
  9 10  1  0  0  0  0
  9  7  1  0  0  0  0
 10  5  1  0  0  0  0
 11 12  1  0  0  0  0
 12  1  1  0  0  0  0
 14  8  1  0  0  0  0
 15 10  1  0  0  0  0
 17 16  1  0  0  0  0
 17 18  1  0  0  0  0
 19 18  1  0  0  0  0
 20 19  1  0  0  0  0
 20 25  1  0  0  0  0
 21 20  2  0  0  0  0
 22 21  1  0  0  0  0
 22 23  2  0  0  0  0
 23 24  1  0  0  0  0
 24 25  2  0  0  0  0
 26 23  1  0  0  0  0
 26 28  1  0  0  0  0
 26 27  1  0  0  0  0
 28 27  1  0  0  0  0
M  END
>  <MODEL>
5

>  <REMARK>
 VINA RESULT:      -8.2      4.449      9.444
  Name = CHEMBL4091907-1545
  6 active torsions:
  status: ('A' for Active; 'I' for Inactive)
    1  A    between atoms: C_1  and  N_2
    2  A    between atoms: N_2  and  C_3
    3  A    between atoms: N_2  and  C_14
    4  A    between atoms: C_3  and  C_4
    5  A    between atoms: C_4  and  C_5
    6  A    between atoms: C_8  and  C_9
                            x       y       z     vdW  Elec       q    Type
                         _______ _______ _______ _____ _____    ______ ____

>  <TORSDO>
F 5

>  <rfscore_v2>
6.8265256665001575

>  <vina_affinity>
-7.531017242401949

>  <vina_gauss1>
71.09666462771281

>  <vina_gauss2>
1140.8586298758523

>  <vina_repulsion>
0.49851107794157445

>  <vina_hydrophobic>
52.50720021294686

>  <vina_hydrogen>
0.566063171338239

>  <vina_intra_gauss1>
23.857722747630753

>  <vina_intra_gauss2>
175.12766074325634

>  <vina_intra_repulsion>
0.11275716333670252

>  <vina_intra_hydrophobic>
15.212063121928427

>  <vina_intra_hydrogen>
0.0

>  <vina_num_rotors>
6.0

>  <rfscore_v3>
6.474166240814741

>  <PLEClinear_p5_l1_s65536>
1.0397476940575625

>  <nnscore>
6.4045472375507355

$$$$
CHEMBL4091907-1545
 OpenBabel12202021053D

 28 31  0  0  1  0  0  0  0  0999 V2000
   -2.9630   48.9400   67.0480 C   0  0  2  0  0  3  0  0  0  0  0  0
   -1.8400   47.8770   66.9600 C   0  0  0  0  0  2  0  0  0  0  0  0
   -1.8140   46.9930   68.2060 C   0  0  0  0  0  2  0  0  0  0  0  0
   -1.5450   47.8320   69.3790 N   0  0  1  0  0  0  0  0  0  0  0  0
   -0.3310   47.7380   69.9700 C   0  0  2  0  0  3  0  0  0  0  0  0
    0.7080   47.0180   69.6230 N   0  0  0  0  0  0  0  0  0  0  0  0
    1.6190   47.2530   70.6050 C   0  0  0  0  0  0  0  0  0  0  0  0
    2.8030   46.6520   70.5530 N   0  0  0  0  0  0  0  0  0  0  0  0
    1.2370   48.1120   71.5440 N   0  0  0  0  0  2  0  0  0  0  0  0
   -0.0160   48.3830   71.1440 N   0  0  0  0  0  0  0  0  0  0  0  0
   -2.4540   48.9700   69.5530 C   0  0  0  0  0  2  0  0  0  0  0  0
   -2.5250   49.8020   68.2650 C   0  0  0  0  0  2  0  0  0  0  0  0
    3.0870   46.2790   69.6590 H   0  0  0  0  0  0  0  0  0  0  0  0
    3.5460   47.0510   71.1100 H   0  0  0  0  0  0  0  0  0  0  0  0
   -0.6020   48.9730   71.7140 H   0  0  0  0  0  0  0  0  0  0  0  0
   -5.3350   49.5150   66.7720 C   0  0  0  0  0  1  0  0  0  0  0  0
   -4.3780   48.4570   67.1750 N   0  0  0  0  0  0  0  0  0  0  0  0
   -4.7300   47.2640   66.3580 C   0  0  0  0  0  2  0  0  0  0  0  0
   -6.1290   46.6690   66.5450 C   0  0  0  0  0  2  0  0  0  0  0  0
   -6.2000   45.6680   67.6660 C   0  0  0  0  0  0  0  0  0  0  0  0
   -7.3420   44.8710   67.8260 C   0  0  0  0  0  3  0  0  0  0  0  0
   -7.3850   43.8960   68.8210 C   0  0  0  0  0  3  0  0  0  0  0  0
   -6.2970   43.6960   69.6820 C   0  0  0  0  0  0  0  0  0  0  0  0
   -5.1670   44.5150   69.5130 C   0  0  0  0  0  3  0  0  0  0  0  0
   -5.1140   45.4920   68.5210 C   0  0  0  0  0  3  0  0  0  0  0  0
   -6.3260   42.6660   70.7800 C   0  0  0  0  0  3  0  0  0  0  0  0
   -7.2010   42.9150   71.9880 C   0  0  0  0  0  2  0  0  0  0  0  0
   -5.7100   42.9250   72.1330 C   0  0  0  0  0  2  0  0  0  0  0  0
  1 17  1  1  0  0  0
  1 12  1  0  0  0  0
  2  1  1  0  0  0  0
  2  3  1  0  0  0  0
  4  3  1  6  0  0  0
  4 11  1  0  0  0  0
  4  5  1  0  0  0  0
  5  6  1  1  0  0  0
  5 10  1  0  0  0  0
  6  7  2  0  0  0  0
  7  9  1  0  0  0  0
  8  7  1  0  0  0  0
  8 14  1  0  0  0  0
 10  9  1  0  0  0  0
 10 15  1  0  0  0  0
 12 11  1  0  0  0  0
 13  8  1  0  0  0  0
 16 17  1  0  0  0  0
 18 19  1  0  0  0  0
 18 17  1  0  0  0  0
 19 20  1  0  0  0  0
 20 21  2  0  0  0  0
 20 25  1  0  0  0  0
 21 22  1  0  0  0  0
 22 23  2  0  0  0  0
 23 26  1  0  0  0  0
 24 23  1  0  0  0  0
 25 24  2  0  0  0  0
 26 27  1  0  0  0  0
 26 28  1  0  0  0  0
 27 28  1  0  0  0  0
M  END
>  <MODEL>
6

>  <REMARK>
 VINA RESULT:      -8.1      5.201      8.611
  Name = CHEMBL4091907-1545
  6 active torsions:
  status: ('A' for Active; 'I' for Inactive)
    1  A    between atoms: C_1  and  N_2
    2  A    between atoms: N_2  and  C_3
    3  A    between atoms: N_2  and  C_14
    4  A    between atoms: C_3  and  C_4
    5  A    between atoms: C_4  and  C_5
    6  A    between atoms: C_8  and  C_9
                            x       y       z     vdW  Elec       q    Type
                         _______ _______ _______ _____ _____    ______ ____

>  <TORSDO>
F 5

>  <rfscore_v2>
7.216886320235315

>  <vina_affinity>
-7.298550199377293

>  <vina_gauss1>
71.7474355091718

>  <vina_gauss2>
1193.4676339066864

>  <vina_repulsion>
1.0936510511786455

>  <vina_hydrophobic>
46.93452663318449

>  <vina_hydrogen>
0.7139772102878909

>  <vina_intra_gauss1>
23.94076900198703

>  <vina_intra_gauss2>
195.91279296142224

>  <vina_intra_repulsion>
0.540706769465333

>  <vina_intra_hydrophobic>
14.054633220467085

>  <vina_intra_hydrogen>
0.0

>  <vina_num_rotors>
6.0

>  <rfscore_v3>
6.949473824897332

>  <PLEClinear_p5_l1_s65536>
2.322346513715082

>  <nnscore>
7.617745068647595

$$$$
CHEMBL4091907-1545
 OpenBabel12202021053D

 28 31  0  0  1  0  0  0  0  0999 V2000
   -1.5020   49.5640   67.5990 C   0  0  2  0  0  3  0  0  0  0  0  0
   -1.6970   48.0470   67.3500 C   0  0  0  0  0  2  0  0  0  0  0  0
   -2.9670   47.7780   66.5430 C   0  0  0  0  0  2  0  0  0  0  0  0
   -4.1250   48.2600   67.3030 N   0  0  1  0  0  0  0  0  0  0  0  0
   -4.9540   47.3440   67.8590 C   0  0  2  0  0  3  0  0  0  0  0  0
   -4.8620   46.0370   67.8660 N   0  0  0  0  0  0  0  0  0  0  0  0
   -5.9950   45.6270   68.4960 C   0  0  0  0  0  0  0  0  0  0  0  0
   -6.2140   44.3260   68.6630 N   0  0  0  0  0  0  0  0  0  0  0  0
   -6.7910   46.5990   68.9280 N   0  0  0  0  0  2  0  0  0  0  0  0
   -6.1320   47.6810   68.4840 N   0  0  0  0  0  0  0  0  0  0  0  0
   -4.0530   49.6610   67.7260 C   0  0  0  0  0  2  0  0  0  0  0  0
   -2.7360   49.9310   68.4680 C   0  0  0  0  0  2  0  0  0  0  0  0
   -5.4160   43.7140   68.5760 H   0  0  0  0  0  0  0  0  0  0  0  0
   -6.8890   44.0600   69.3660 H   0  0  0  0  0  0  0  0  0  0  0  0
   -6.5410   48.5950   68.6050 H   0  0  0  0  0  0  0  0  0  0  0  0
   -0.5060   51.6270   66.7130 C   0  0  0  0  0  1  0  0  0  0  0  0
   -1.3640   50.4590   66.4020 N   0  0  0  0  0  0  0  0  0  0  0  0
   -0.7680   49.8320   65.1910 C   0  0  0  0  0  2  0  0  0  0  0  0
   -0.0100   50.7480   64.2240 C   0  0  0  0  0  2  0  0  0  0  0  0
    1.1720   50.0740   63.5810 C   0  0  0  0  0  0  0  0  0  0  0  0
    1.7730   50.6410   62.4480 C   0  0  0  0  0  3  0  0  0  0  0  0
    2.9100   50.0580   61.8890 C   0  0  0  0  0  3  0  0  0  0  0  0
    3.4690   48.8970   62.4390 C   0  0  0  0  0  0  0  0  0  0  0  0
    2.8420   48.3370   63.5670 C   0  0  0  0  0  3  0  0  0  0  0  0
    1.7080   48.9130   64.1330 C   0  0  0  0  0  3  0  0  0  0  0  0
    4.6810   48.2340   61.8420 C   0  0  0  0  0  3  0  0  0  0  0  0
    4.4920   47.2790   60.6850 C   0  0  0  0  0  2  0  0  0  0  0  0
    4.9490   46.7590   62.0130 C   0  0  0  0  0  2  0  0  0  0  0  0
  1 17  1  6  0  0  0
  1 12  1  0  0  0  0
  2  1  1  0  0  0  0
  3  2  1  0  0  0  0
  4  3  1  1  0  0  0
  4 11  1  0  0  0  0
  4  5  1  0  0  0  0
  5  6  1  6  0  0  0
  5 10  1  0  0  0  0
  6  7  2  0  0  0  0
  7  8  1  0  0  0  0
  7  9  1  0  0  0  0
  8 14  1  0  0  0  0
 10 15  1  0  0  0  0
 10  9  1  0  0  0  0
 11 12  1  0  0  0  0
 13  8  1  0  0  0  0
 17 16  1  0  0  0  0
 18 17  1  0  0  0  0
 19 18  1  0  0  0  0
 20 25  1  0  0  0  0
 20 19  1  0  0  0  0
 21 20  2  0  0  0  0
 22 23  2  0  0  0  0
 22 21  1  0  0  0  0
 23 24  1  0  0  0  0
 24 25  2  0  0  0  0
 26 28  1  0  0  0  0
 26 23  1  0  0  0  0
 27 26  1  0  0  0  0
 27 28  1  0  0  0  0
M  END
>  <MODEL>
7

>  <REMARK>
 VINA RESULT:      -7.7      3.428      4.429
  Name = CHEMBL4091907-1545
  6 active torsions:
  status: ('A' for Active; 'I' for Inactive)
    1  A    between atoms: C_1  and  N_2
    2  A    between atoms: N_2  and  C_3
    3  A    between atoms: N_2  and  C_14
    4  A    between atoms: C_3  and  C_4
    5  A    between atoms: C_4  and  C_5
    6  A    between atoms: C_8  and  C_9
                            x       y       z     vdW  Elec       q    Type
                         _______ _______ _______ _____ _____    ______ ____

>  <TORSDO>
F 5

>  <rfscore_v2>
6.726126749528246

>  <vina_affinity>
-7.373035607938735

>  <vina_gauss1>
68.90030979523712

>  <vina_gauss2>
1108.559559405509

>  <vina_repulsion>
0.18143660181301008

>  <vina_hydrophobic>
55.28089733918209

>  <vina_hydrogen>
0.0

>  <vina_intra_gauss1>
19.308973591480857

>  <vina_intra_gauss2>
142.07129905754434

>  <vina_intra_repulsion>
0.5023006974684093

>  <vina_intra_hydrophobic>
12.236269735263505

>  <vina_intra_hydrogen>
0.0

>  <vina_num_rotors>
6.0

>  <rfscore_v3>
6.554247259518264

>  <PLEClinear_p5_l1_s65536>
2.318083266220561

>  <nnscore>
7.291149460534841

$$$$
CHEMBL4091907-1545
 OpenBabel12202021053D

 28 31  0  0  1  0  0  0  0  0999 V2000
   -0.1900   53.7850   60.3750 C   0  0  2  0  0  3  0  0  0  0  0  0
    0.6020   54.4150   59.2020 C   0  0  0  0  0  2  0  0  0  0  0  0
    1.6580   55.3950   59.7110 C   0  0  0  0  0  2  0  0  0  0  0  0
    0.9900   56.4820   60.4350 N   0  0  1  0  0  0  0  0  0  0  0  0
    0.9410   57.7040   59.8550 C   0  0  2  0  0  3  0  0  0  0  0  0
    1.3740   58.0820   58.6770 N   0  0  0  0  0  0  0  0  0  0  0  0
    1.1320   59.4200   58.6480 C   0  0  0  0  0  0  0  0  0  0  0  0
    1.4710   60.1200   57.5690 N   0  0  0  0  0  0  0  0  0  0  0  0
    0.5340   59.9160   59.7250 N   0  0  0  0  0  2  0  0  0  0  0  0
    0.4510   58.8190   60.4950 N   0  0  0  0  0  0  0  0  0  0  0  0
    0.0990   56.0530   61.5170 C   0  0  0  0  0  2  0  0  0  0  0  0
   -0.9060   55.0120   61.0050 C   0  0  0  0  0  2  0  0  0  0  0  0
    1.6260   59.6010   56.7180 H   0  0  0  0  0  0  0  0  0  0  0  0
    1.0320   61.0230   57.4510 H   0  0  0  0  0  0  0  0  0  0  0  0
    0.0910   58.8980   61.4340 H   0  0  0  0  0  0  0  0  0  0  0  0
   -0.2980   52.6040   62.5260 C   0  0  0  0  0  1  0  0  0  0  0  0
    0.5760   52.9910   61.3930 N   0  0  0  0  0  0  0  0  0  0  0  0
    1.1840   51.7240   60.9010 C   0  0  0  0  0  2  0  0  0  0  0  0
    2.7130   51.6300   60.8990 C   0  0  0  0  0  2  0  0  0  0  0  0
    3.2180   50.2440   61.1980 C   0  0  0  0  0  0  0  0  0  0  0  0
    4.1050   49.6140   60.3140 C   0  0  0  0  0  3  0  0  0  0  0  0
    4.6280   48.3590   60.6200 C   0  0  0  0  0  3  0  0  0  0  0  0
    4.2760   47.7000   61.8060 C   0  0  0  0  0  0  0  0  0  0  0  0
    3.3750   48.3440   62.6710 C   0  0  0  0  0  3  0  0  0  0  0  0
    2.8480   49.5990   62.3760 C   0  0  0  0  0  3  0  0  0  0  0  0
    4.8080   46.3340   62.1490 C   0  0  0  0  0  3  0  0  0  0  0  0
    6.2010   45.9610   61.6940 C   0  0  0  0  0  2  0  0  0  0  0  0
    5.0120   45.2710   61.0980 C   0  0  0  0  0  2  0  0  0  0  0  0
  1 12  1  0  0  0  0
  1 17  1  1  0  0  0
  2  3  1  0  0  0  0
  2  1  1  0  0  0  0
  4  3  1  6  0  0  0
  4 11  1  0  0  0  0
  5  6  1  1  0  0  0
  5  4  1  0  0  0  0
  5 10  1  0  0  0  0
  7  6  2  0  0  0  0
  7  9  1  0  0  0  0
  8  7  1  0  0  0  0
  9 10  1  0  0  0  0
 10 15  1  0  0  0  0
 12 11  1  0  0  0  0
 13  8  1  0  0  0  0
 14  8  1  0  0  0  0
 17 16  1  0  0  0  0
 18 17  1  0  0  0  0
 19 18  1  0  0  0  0
 19 20  1  0  0  0  0
 20 25  1  0  0  0  0
 21 22  1  0  0  0  0
 21 20  2  0  0  0  0
 22 23  2  0  0  0  0
 23 26  1  0  0  0  0
 23 24  1  0  0  0  0
 25 24  2  0  0  0  0
 27 26  1  0  0  0  0
 28 27  1  0  0  0  0
 28 26  1  0  0  0  0
M  END
>  <MODEL>
8

>  <REMARK>
 VINA RESULT:      -7.6      6.035      9.496
  Name = CHEMBL4091907-1545
  6 active torsions:
  status: ('A' for Active; 'I' for Inactive)
    1  A    between atoms: C_1  and  N_2
    2  A    between atoms: N_2  and  C_3
    3  A    between atoms: N_2  and  C_14
    4  A    between atoms: C_3  and  C_4
    5  A    between atoms: C_4  and  C_5
    6  A    between atoms: C_8  and  C_9
                            x       y       z     vdW  Elec       q    Type
                         _______ _______ _______ _____ _____    ______ ____

>  <TORSDO>
F 5

>  <rfscore_v2>
6.354636424630932

>  <vina_affinity>
-7.3577686873550165

>  <vina_gauss1>
72.2877384263531

>  <vina_gauss2>
1079.8861991638278

>  <vina_repulsion>
1.2125325699774154

>  <vina_hydrophobic>
55.331716312955145

>  <vina_hydrogen>
1.4839409491472062

>  <vina_intra_gauss1>
20.718247553533217

>  <vina_intra_gauss2>
137.79430582127912

>  <vina_intra_repulsion>
0.06813505551029907

>  <vina_intra_hydrophobic>
11.25256508573742

>  <vina_intra_hydrogen>
0.0

>  <vina_num_rotors>
6.0

>  <rfscore_v3>
5.924671517482519

>  <PLEClinear_p5_l1_s65536>
1.6980238241128807

>  <nnscore>
6.706039561833798

$$$$
CHEMBL4091907-1545
 OpenBabel12202021053D

 28 31  0  0  1  0  0  0  0  0999 V2000
   -5.0550   49.6790   67.5380 C   0  0  2  0  0  3  0  0  0  0  0  0
   -4.2950   48.8870   68.6310 C   0  0  0  0  0  2  0  0  0  0  0  0
   -3.7950   47.5460   68.0960 C   0  0  0  0  0  2  0  0  0  0  0  0
   -4.9480   46.7400   67.6790 N   0  0  1  0  0  0  0  0  0  0  0  0
   -5.2940   45.6740   68.4380 C   0  0  2  0  0  3  0  0  0  0  0  0
   -4.7690   45.2500   69.5620 N   0  0  0  0  0  0  0  0  0  0  0  0
   -5.4540   44.1080   69.8390 C   0  0  0  0  0  0  0  0  0  0  0  0
   -5.1520   43.4150   70.9320 N   0  0  0  0  0  0  0  0  0  0  0  0
   -6.4150   43.7950   68.9760 N   0  0  0  0  0  2  0  0  0  0  0  0
   -6.2760   44.7810   68.0750 N   0  0  0  0  0  0  0  0  0  0  0  0
   -5.8490   47.3900   66.7230 C   0  0  0  0  0  2  0  0  0  0  0  0
   -6.2800   48.7690   67.2430 C   0  0  0  0  0  2  0  0  0  0  0  0
   -4.6360   43.9000   71.6510 H   0  0  0  0  0  0  0  0  0  0  0  0
   -5.8420   42.7560   71.2640 H   0  0  0  0  0  0  0  0  0  0  0  0
   -6.8410   44.7730   67.2400 H   0  0  0  0  0  0  0  0  0  0  0  0
   -5.2230   50.6320   65.2810 C   0  0  0  0  0  1  0  0  0  0  0  0
   -4.3080   50.0470   66.2900 N   0  0  0  0  0  0  0  0  0  0  0  0
   -3.2100   51.0370   66.4610 C   0  0  0  0  0  2  0  0  0  0  0  0
   -1.8070   50.6200   66.0110 C   0  0  0  0  0  2  0  0  0  0  0  0
   -1.1050   49.7410   67.0110 C   0  0  0  0  0  0  0  0  0  0  0  0
   -1.0900   50.0920   68.3680 C   0  0  0  0  0  3  0  0  0  0  0  0
   -0.4990   49.2470   69.3060 C   0  0  0  0  0  3  0  0  0  0  0  0
    0.0950   48.0400   68.9160 C   0  0  0  0  0  0  0  0  0  0  0  0
    0.0820   47.7130   67.5490 C   0  0  0  0  0  3  0  0  0  0  0  0
   -0.5070   48.5500   66.6030 C   0  0  0  0  0  3  0  0  0  0  0  0
    0.7610   47.1210   69.9060 C   0  0  0  0  0  3  0  0  0  0  0  0
    1.4610   47.7250   71.1020 C   0  0  0  0  0  2  0  0  0  0  0  0
    2.2610   47.0420   70.0360 C   0  0  0  0  0  2  0  0  0  0  0  0
  1 17  1  6  0  0  0
  1  2  1  0  0  0  0
  3  2  1  0  0  0  0
  4 11  1  1  0  0  0
  4  3  1  0  0  0  0
  4  5  1  0  0  0  0
  5  6  1  6  0  0  0
  6  7  2  0  0  0  0
  7  8  1  0  0  0  0
  8 14  1  0  0  0  0
  8 13  1  0  0  0  0
  9  7  1  0  0  0  0
 10  5  1  0  0  0  0
 10  9  1  0  0  0  0
 11 12  1  0  0  0  0
 12  1  1  0  0  0  0
 15 10  1  0  0  0  0
 16 17  1  0  0  0  0
 17 18  1  0  0  0  0
 19 18  1  0  0  0  0
 19 20  1  0  0  0  0
 20 21  1  0  0  0  0
 21 22  2  0  0  0  0
 23 22  1  0  0  0  0
 23 26  1  0  0  0  0
 24 23  2  0  0  0  0
 25 20  2  0  0  0  0
 25 24  1  0  0  0  0
 26 28  1  0  0  0  0
 26 27  1  0  0  0  0
 28 27  1  0  0  0  0
M  END
>  <MODEL>
9

>  <REMARK>
 VINA RESULT:      -7.6      5.076      6.864
  Name = CHEMBL4091907-1545
  6 active torsions:
  status: ('A' for Active; 'I' for Inactive)
    1  A    between atoms: C_1  and  N_2
    2  A    between atoms: N_2  and  C_3
    3  A    between atoms: N_2  and  C_14
    4  A    between atoms: C_3  and  C_4
    5  A    between atoms: C_4  and  C_5
    6  A    between atoms: C_8  and  C_9
                            x       y       z     vdW  Elec       q    Type
                         _______ _______ _______ _____ _____    ______ ____

>  <TORSDO>
F 5

>  <rfscore_v2>
6.938280361804858

>  <vina_affinity>
-6.8809757595701715

>  <vina_gauss1>
63.42877048476842

>  <vina_gauss2>
1186.657452473124

>  <vina_repulsion>
0.5432580576952999

>  <vina_hydrophobic>
34.984197583555485

>  <vina_hydrogen>
0.24424701949144814

>  <vina_intra_gauss1>
42.167981604739154

>  <vina_intra_gauss2>
222.32578745749598

>  <vina_intra_repulsion>
0.44451546392833

>  <vina_intra_hydrophobic>
22.271003320841885

>  <vina_intra_hydrogen>
0.0

>  <vina_num_rotors>
6.0

>  <rfscore_v3>
6.645418146647473

>  <PLEClinear_p5_l1_s65536>
2.3751834405897756

>  <nnscore>
6.63589345179827

$$$$
