CHEMBL2413400-4000
 OpenBabel12202021053D

 32 33  0  0  0  0  0  0  0  0999 V2000
   -0.4680   50.0840   64.6230 C   0  0  0  0  0  2  0  0  0  0  0  0
   -0.9040   50.2330   65.8890 C   0  0  0  0  0  0  0  0  0  0  0  0
    3.0340   48.3100   62.8160 C   0  0  0  0  0  0  0  0  0  0  0  0
    2.2980   47.6560   63.8150 C   0  0  0  0  0  3  0  0  0  0  0  0
    1.2100   48.2630   64.4630 C   0  0  0  0  0  3  0  0  0  0  0  0
    0.8020   49.5490   64.1170 C   0  0  0  0  0  0  0  0  0  0  0  0
    1.5330   50.2350   63.1470 C   0  0  0  0  0  3  0  0  0  0  0  0
    2.6280   49.6220   62.5100 C   0  0  0  0  0  3  0  0  0  0  0  0
    4.3060   46.2560   62.2950 C   0  0  0  0  0  1  0  0  0  0  0  0
    4.0820   47.6890   62.1210 N   0  0  0  0  0  0  0  0  0  0  0  0
    5.2670   48.4960   61.8400 C   0  0  0  0  0  1  0  0  0  0  0  0
   -0.2290   49.8250   67.0310 N   0  0  0  0  0  4  0  0  0  0  0  0
   -0.4450   48.5840   67.6080 C   0  0  0  0  0  0  0  0  0  0  0  0
   -1.3280   47.8070   67.2650 O   0  0  0  0  0  0  0  0  0  0  0  0
    0.0420   50.5560   67.6770 H   0  0  0  0  0  0  0  0  0  0  0  0
    0.3720   48.2590   68.8100 C   0  0  0  0  0  0  0  0  0  0  0  0
   -0.1090   48.6740   70.0590 C   0  0  0  0  0  3  0  0  0  0  0  0
    0.5490   48.3000   71.2300 C   0  0  0  0  0  3  0  0  0  0  0  0
    1.6930   47.5080   71.1570 C   0  0  0  0  0  3  0  0  0  0  0  0
    2.1940   47.1130   69.9160 C   0  0  0  0  0  3  0  0  0  0  0  0
    1.5410   47.4890   68.7380 C   0  0  0  0  0  3  0  0  0  0  0  0
   -2.2210   50.9480   66.0530 C   0  0  0  0  0  0  0  0  0  0  0  0
   -2.6350   51.3480   67.1370 O   0  0  0  0  0  0  0  0  0  0  0  0
   -2.8900   51.1710   64.8590 N   0  0  0  0  0  0  0  0  0  0  0  0
   -2.3380   51.2240   64.0050 H   0  0  0  0  0  0  0  0  0  0  0  0
   -3.9950   52.0370   64.9170 N   0  0  0  0  0  0  0  0  0  0  0  0
   -3.8820   52.8910   65.4670 H   0  0  0  0  0  0  0  0  0  0  0  0
   -5.2440   51.6540   64.5350 C   0  0  0  0  0  0  0  0  0  0  0  0
   -6.0130   50.3460   65.2030 S   0  0  0  0  0  0  0  0  0  0  0  0
   -5.8530   52.4180   63.5950 N   0  0  0  0  0  0  0  0  0  0  0  0
   -6.8280   52.6310   63.7390 H   0  0  0  0  0  0  0  0  0  0  0  0
   -5.2910   53.1510   63.1810 H   0  0  0  0  0  0  0  0  0  0  0  0
  1  2  1  0  0  0  0
  2 22  1  0  0  0  0
  2 12  2  3  0  0  0
  3  4  1  0  0  0  0
  4  5  2  0  0  0  0
  6  5  1  0  0  0  0
  6  1  1  0  0  0  0
  7  6  2  0  0  0  0
  8  3  2  0  0  0  0
  8  7  1  0  0  0  0
 10  9  1  0  0  0  0
 10  3  1  0  0  0  0
 11 10  1  0  0  0  0
 12 13  1  0  0  0  0
 12 15  1  0  0  0  0
 13 16  1  0  0  0  0
 14 13  2  0  0  0  0
 16 17  1  0  0  0  0
 17 18  2  0  0  0  0
 19 18  1  0  0  0  0
 20 19  2  0  0  0  0
 21 16  2  0  0  0  0
 21 20  1  0  0  0  0
 22 23  2  0  0  0  0
 24 26  1  0  0  0  0
 24 22  1  0  0  0  0
 25 24  1  0  0  0  0
 26 27  1  0  0  0  0
 28 26  1  0  0  0  0
 28 29  2  0  0  0  0
 30 31  1  0  0  0  0
 30 28  1  0  0  0  0
 32 30  1  0  0  0  0
M  END
>  <MODEL>
1

>  <REMARK>
 VINA RESULT:      -8.7      0.000      0.000
  Name = CHEMBL2413400-4000
  10 active torsions:
  status: ('A' for Active; 'I' for Inactive)
    1  A    between atoms: C_1  and  N_2
    2  A    between atoms: N_2  and  C_3
    3  A    between atoms: N_2  and  C_4
    4  A    between atoms: C_7  and  C_8
    5  A    between atoms: C_9  and  N_10
    6  A    between atoms: C_9  and  C_19
    7  A    between atoms: C_11  and  C_13
    8  A    between atoms: N_21  and  N_22
    9  A    between atoms: N_22  and  C_23
   10  A    between atoms: C_23  and  N_24
                            x       y       z     vdW  Elec       q    Type
                         _______ _______ _______ _____ _____    ______ ____

>  <TORSDO>
F 8

>  <rfscore_v2>
7.253127816017319

>  <vina_affinity>
-7.767353145625776

>  <vina_gauss1>
99.70524483428608

>  <vina_gauss2>
1280.2829600202494

>  <vina_repulsion>
1.1409471209930189

>  <vina_hydrophobic>
66.28000705628158

>  <vina_hydrogen>
0.5674022503429775

>  <vina_intra_gauss1>
28.468272530769983

>  <vina_intra_gauss2>
237.6510439074492

>  <vina_intra_repulsion>
0.4085153718403285

>  <vina_intra_hydrophobic>
6.85135495146727

>  <vina_intra_hydrogen>
0.0

>  <vina_num_rotors>
9.0

>  <rfscore_v3>
6.899656781884781

>  <PLEClinear_p5_l1_s65536>
3.150514259962163

>  <nnscore>
6.853630263339052

$$$$
CHEMBL2413400-4000
 OpenBabel12202021053D

 32 33  0  0  0  0  0  0  0  0999 V2000
    1.5660   47.8880   65.4660 C   0  0  0  0  0  2  0  0  0  0  0  0
    1.0800   48.2130   66.6800 C   0  0  0  0  0  0  0  0  0  0  0  0
    2.2210   50.5820   62.1500 C   0  0  0  0  0  0  0  0  0  0  0  0
    1.1040   50.6920   62.9920 C   0  0  0  0  0  3  0  0  0  0  0  0
    0.8440   49.7690   64.0180 C   0  0  0  0  0  3  0  0  0  0  0  0
    1.7110   48.7050   64.2550 C   0  0  0  0  0  0  0  0  0  0  0  0
    2.8150   48.5530   63.4160 C   0  0  0  0  0  3  0  0  0  0  0  0
    3.0610   49.4780   62.3850 C   0  0  0  0  0  3  0  0  0  0  0  0
    1.4680   52.4280   60.6910 C   0  0  0  0  0  1  0  0  0  0  0  0
    2.5200   51.5320   61.1640 N   0  0  0  0  0  0  0  0  0  0  0  0
    3.5540   51.1830   60.1930 C   0  0  0  0  0  1  0  0  0  0  0  0
    0.6590   49.4780   67.0710 N   0  0  0  0  0  4  0  0  0  0  0  0
   -0.6750   49.8520   67.0340 C   0  0  0  0  0  0  0  0  0  0  0  0
   -1.5670   49.1790   66.5330 O   0  0  0  0  0  0  0  0  0  0  0  0
    1.3190   50.2320   66.9320 H   0  0  0  0  0  0  0  0  0  0  0  0
   -0.9920   51.2260   67.5140 C   0  0  0  0  0  0  0  0  0  0  0  0
   -2.0500   51.3720   68.4220 C   0  0  0  0  0  3  0  0  0  0  0  0
   -2.3210   52.6140   68.9960 C   0  0  0  0  0  3  0  0  0  0  0  0
   -1.5340   53.7150   68.6660 C   0  0  0  0  0  3  0  0  0  0  0  0
   -0.4950   53.5830   67.7430 C   0  0  0  0  0  3  0  0  0  0  0  0
   -0.2220   52.3410   67.1590 C   0  0  0  0  0  3  0  0  0  0  0  0
    0.9510   47.0800   67.6650 C   0  0  0  0  0  0  0  0  0  0  0  0
    1.8990   46.3760   68.0040 O   0  0  0  0  0  0  0  0  0  0  0  0
   -0.3200   46.9470   68.2030 N   0  0  0  0  0  0  0  0  0  0  0  0
   -0.9140   47.7730   68.2340 H   0  0  0  0  0  0  0  0  0  0  0  0
   -0.4450   46.0720   69.2960 N   0  0  0  0  0  0  0  0  0  0  0  0
   -0.6900   45.1030   69.0830 H   0  0  0  0  0  0  0  0  0  0  0  0
   -0.5400   46.5150   70.5790 C   0  0  0  0  0  0  0  0  0  0  0  0
    0.5080   47.6350   71.2100 S   0  0  0  0  0  0  0  0  0  0  0  0
   -1.5610   46.0190   71.3190 N   0  0  0  0  0  0  0  0  0  0  0  0
   -1.3460   45.2580   71.9450 H   0  0  0  0  0  0  0  0  0  0  0  0
   -2.2410   46.6920   71.6510 H   0  0  0  0  0  0  0  0  0  0  0  0
  1  2  1  0  0  0  0
  2 12  2  0  0  0  0
  2 22  1  0  0  0  0
  3  8  2  0  0  0  0
  3  4  1  0  0  0  0
  4  5  2  0  0  0  0
  5  6  1  0  0  0  0
  6  1  1  0  0  0  0
  7  6  2  0  0  0  0
  8  7  1  0  0  0  0
  9 10  1  0  0  0  0
 10  3  1  0  0  0  0
 11 10  1  0  0  0  0
 13 12  1  0  0  0  0
 13 16  1  0  0  0  0
 14 13  2  0  0  0  0
 15 12  1  0  0  0  0
 16 17  1  0  0  0  0
 17 18  2  0  0  0  0
 19 18  1  0  0  0  0
 20 19  2  0  0  0  0
 21 16  2  0  0  0  0
 21 20  1  0  0  0  0
 22 23  2  0  0  0  0
 22 24  1  0  0  0  0
 24 25  1  0  0  0  0
 24 26  1  0  0  0  0
 26 28  1  0  0  0  0
 27 26  1  0  0  0  0
 28 29  2  0  0  0  0
 28 30  1  0  0  0  0
 30 32  1  0  0  0  0
 30 31  1  0  0  0  0
M  END
>  <MODEL>
2

>  <REMARK>
 VINA RESULT:      -8.3      3.389      5.418
  Name = CHEMBL2413400-4000
  10 active torsions:
  status: ('A' for Active; 'I' for Inactive)
    1  A    between atoms: C_1  and  N_2
    2  A    between atoms: N_2  and  C_3
    3  A    between atoms: N_2  and  C_4
    4  A    between atoms: C_7  and  C_8
    5  A    between atoms: C_9  and  N_10
    6  A    between atoms: C_9  and  C_19
    7  A    between atoms: C_11  and  C_13
    8  A    between atoms: N_21  and  N_22
    9  A    between atoms: N_22  and  C_23
   10  A    between atoms: C_23  and  N_24
                            x       y       z     vdW  Elec       q    Type
                         _______ _______ _______ _____ _____    ______ ____

>  <TORSDO>
F 8

>  <rfscore_v2>
7.446752536241538

>  <vina_affinity>
-7.83648766578458

>  <vina_gauss1>
111.41008651935465

>  <vina_gauss2>
1320.1495043656087

>  <vina_repulsion>
1.6833430328617514

>  <vina_hydrophobic>
59.78504890670941

>  <vina_hydrogen>
0.8514153836166376

>  <vina_intra_gauss1>
29.02497404778693

>  <vina_intra_gauss2>
251.02287452545139

>  <vina_intra_repulsion>
2.3591774551349234

>  <vina_intra_hydrophobic>
8.762379029716865

>  <vina_intra_hydrogen>
1.2748252838374987

>  <vina_num_rotors>
9.0

>  <rfscore_v3>
7.2139674745254725

>  <PLEClinear_p5_l1_s65536>
3.883070079743454

>  <nnscore>
6.962668967465168

$$$$
CHEMBL2413400-4000
 OpenBabel12202021053D

 32 33  0  0  0  0  0  0  0  0999 V2000
   -4.1920   47.0780   67.1250 C   0  0  0  0  0  2  0  0  0  0  0  0
   -3.0540   47.7630   66.9040 C   0  0  0  0  0  0  0  0  0  0  0  0
   -5.1180   44.0370   70.0530 C   0  0  0  0  0  0  0  0  0  0  0  0
   -3.8680   44.6710   70.0060 C   0  0  0  0  0  3  0  0  0  0  0  0
   -3.5350   45.5980   69.0050 C   0  0  0  0  0  3  0  0  0  0  0  0
   -4.4560   45.9440   68.0190 C   0  0  0  0  0  0  0  0  0  0  0  0
   -5.6980   45.3080   68.0230 C   0  0  0  0  0  3  0  0  0  0  0  0
   -6.0180   44.3730   69.0250 C   0  0  0  0  0  3  0  0  0  0  0  0
   -6.3800   42.0440   70.7890 C   0  0  0  0  0  1  0  0  0  0  0  0
   -5.4810   43.1570   71.0820 N   0  0  0  0  0  0  0  0  0  0  0  0
   -5.5560   43.7050   72.4340 C   0  0  0  0  0  1  0  0  0  0  0  0
   -1.8490   47.5660   67.5680 N   0  0  0  0  0  4  0  0  0  0  0  0
   -1.4490   48.3760   68.6190 C   0  0  0  0  0  0  0  0  0  0  0  0
   -2.0290   49.3990   68.9620 O   0  0  0  0  0  0  0  0  0  0  0  0
   -1.0950   47.1730   67.0200 H   0  0  0  0  0  0  0  0  0  0  0  0
   -0.1520   48.0320   69.2650 C   0  0  0  0  0  0  0  0  0  0  0  0
   -0.0130   48.2960   70.6340 C   0  0  0  0  0  3  0  0  0  0  0  0
    1.1320   47.8910   71.3190 C   0  0  0  0  0  3  0  0  0  0  0  0
    2.1450   47.2200   70.6370 C   0  0  0  0  0  3  0  0  0  0  0  0
    2.0270   46.9780   69.2670 C   0  0  0  0  0  3  0  0  0  0  0  0
    0.8820   47.3860   68.5740 C   0  0  0  0  0  3  0  0  0  0  0  0
   -3.1060   48.7950   65.8070 C   0  0  0  0  0  0  0  0  0  0  0  0
   -3.8090   49.8000   65.8670 O   0  0  0  0  0  0  0  0  0  0  0  0
   -2.2390   48.5390   64.7560 N   0  0  0  0  0  0  0  0  0  0  0  0
   -1.4100   47.9800   64.9460 H   0  0  0  0  0  0  0  0  0  0  0  0
   -2.0660   49.5780   63.8250 N   0  0  0  0  0  0  0  0  0  0  0  0
   -2.4710   49.4360   62.8970 H   0  0  0  0  0  0  0  0  0  0  0  0
   -1.1690   50.5840   64.0110 C   0  0  0  0  0  0  0  0  0  0  0  0
    0.4500   50.3960   63.7050 S   0  0  0  0  0  0  0  0  0  0  0  0
   -1.6660   51.7720   64.4330 N   0  0  0  0  0  0  0  0  0  0  0  0
   -2.4630   52.1390   63.9340 H   0  0  0  0  0  0  0  0  0  0  0  0
   -1.6510   51.9350   65.4320 H   0  0  0  0  0  0  0  0  0  0  0  0
  1  6  1  0  0  0  0
  2  1  1  0  0  0  0
  2 12  2  3  0  0  0
  3 10  1  0  0  0  0
  4  3  1  0  0  0  0
  5  4  2  0  0  0  0
  6  7  2  0  0  0  0
  6  5  1  0  0  0  0
  7  8  1  0  0  0  0
  8  3  2  0  0  0  0
  9 10  1  0  0  0  0
 10 11  1  0  0  0  0
 12 13  1  0  0  0  0
 13 14  2  0  0  0  0
 13 16  1  0  0  0  0
 15 12  1  0  0  0  0
 16 17  1  0  0  0  0
 17 18  2  0  0  0  0
 19 18  1  0  0  0  0
 20 19  2  0  0  0  0
 21 16  2  0  0  0  0
 21 20  1  0  0  0  0
 22 23  2  0  0  0  0
 22  2  1  0  0  0  0
 24 25  1  0  0  0  0
 24 22  1  0  0  0  0
 26 28  1  0  0  0  0
 26 24  1  0  0  0  0
 27 26  1  0  0  0  0
 28 30  1  0  0  0  0
 29 28  2  0  0  0  0
 30 32  1  0  0  0  0
 31 30  1  0  0  0  0
M  END
>  <MODEL>
3

>  <REMARK>
 VINA RESULT:      -8.1      4.534      7.180
  Name = CHEMBL2413400-4000
  10 active torsions:
  status: ('A' for Active; 'I' for Inactive)
    1  A    between atoms: C_1  and  N_2
    2  A    between atoms: N_2  and  C_3
    3  A    between atoms: N_2  and  C_4
    4  A    between atoms: C_7  and  C_8
    5  A    between atoms: C_9  and  N_10
    6  A    between atoms: C_9  and  C_19
    7  A    between atoms: C_11  and  C_13
    8  A    between atoms: N_21  and  N_22
    9  A    between atoms: N_22  and  C_23
   10  A    between atoms: C_23  and  N_24
                            x       y       z     vdW  Elec       q    Type
                         _______ _______ _______ _____ _____    ______ ____

>  <TORSDO>
F 8

>  <rfscore_v2>
7.11098300241588

>  <vina_affinity>
-7.656825741206603

>  <vina_gauss1>
90.20369245934643

>  <vina_gauss2>
1246.7694192633794

>  <vina_repulsion>
0.6316039440556677

>  <vina_hydrophobic>
70.37855461820013

>  <vina_hydrogen>
0.17687033204096433

>  <vina_intra_gauss1>
27.42756214618305

>  <vina_intra_gauss2>
246.16788206710575

>  <vina_intra_repulsion>
1.6740304518134566

>  <vina_intra_hydrophobic>
6.649446863884114

>  <vina_intra_hydrogen>
0.7252442318101769

>  <vina_num_rotors>
9.0

>  <rfscore_v3>
6.748500520590514

>  <PLEClinear_p5_l1_s65536>
0.6792881858736164

>  <nnscore>
6.3503577999021745

$$$$
CHEMBL2413400-4000
 OpenBabel12202021053D

 32 33  0  0  0  0  0  0  0  0999 V2000
   -4.7110   46.6350   67.4490 C   0  0  0  0  0  2  0  0  0  0  0  0
   -3.5950   47.3320   67.1630 C   0  0  0  0  0  0  0  0  0  0  0  0
   -5.4690   43.6070   70.4390 C   0  0  0  0  0  0  0  0  0  0  0  0
   -4.2530   44.3040   70.3730 C   0  0  0  0  0  3  0  0  0  0  0  0
   -3.9720   45.2280   69.3540 C   0  0  0  0  0  3  0  0  0  0  0  0
   -4.9130   45.5070   68.3660 C   0  0  0  0  0  0  0  0  0  0  0  0
   -6.1210   44.8080   68.3890 C   0  0  0  0  0  3  0  0  0  0  0  0
   -6.3890   43.8770   69.4100 C   0  0  0  0  0  3  0  0  0  0  0  0
   -6.4940   41.4890   71.1920 C   0  0  0  0  0  1  0  0  0  0  0  0
   -5.7810   42.7300   71.4860 N   0  0  0  0  0  0  0  0  0  0  0  0
   -6.0310   43.3190   72.7990 C   0  0  0  0  0  1  0  0  0  0  0  0
   -2.3550   47.1570   67.7640 N   0  0  0  0  0  4  0  0  0  0  0  0
   -1.8840   48.0180   68.7420 C   0  0  0  0  0  0  0  0  0  0  0  0
   -2.4320   49.0670   69.0600 O   0  0  0  0  0  0  0  0  0  0  0  0
   -1.6390   46.7230   67.1940 H   0  0  0  0  0  0  0  0  0  0  0  0
   -0.5540   47.6940   69.3270 C   0  0  0  0  0  0  0  0  0  0  0  0
    0.3830   47.0530   68.5050 C   0  0  0  0  0  3  0  0  0  0  0  0
    1.6830   46.8290   68.9580 C   0  0  0  0  0  3  0  0  0  0  0  0
    2.0520   47.2450   70.2350 C   0  0  0  0  0  3  0  0  0  0  0  0
    1.1170   47.8600   71.0700 C   0  0  0  0  0  3  0  0  0  0  0  0
   -0.1900   48.0830   70.6230 C   0  0  0  0  0  3  0  0  0  0  0  0
   -3.7190   48.3530   66.0610 C   0  0  0  0  0  0  0  0  0  0  0  0
   -3.3420   48.1470   64.9110 O   0  0  0  0  0  0  0  0  0  0  0  0
   -4.3570   49.5220   66.4500 N   0  0  0  0  0  0  0  0  0  0  0  0
   -5.0080   49.4730   67.2310 H   0  0  0  0  0  0  0  0  0  0  0  0
   -4.7160   50.4070   65.4190 N   0  0  0  0  0  0  0  0  0  0  0  0
   -3.9790   51.0180   65.0610 H   0  0  0  0  0  0  0  0  0  0  0  0
   -6.0120   50.6750   65.1040 C   0  0  0  0  0  0  0  0  0  0  0  0
   -7.2820   49.9310   65.8690 S   0  0  0  0  0  0  0  0  0  0  0  0
   -6.2250   51.6120   64.1490 N   0  0  0  0  0  0  0  0  0  0  0  0
   -6.2550   52.5750   64.4490 H   0  0  0  0  0  0  0  0  0  0  0  0
   -5.7970   51.4380   63.2480 H   0  0  0  0  0  0  0  0  0  0  0  0
  1  6  1  0  0  0  0
  2  1  1  0  0  0  0
  2 12  2  3  0  0  0
  3 10  1  0  0  0  0
  4  3  1  0  0  0  0
  5  4  2  0  0  0  0
  6  7  2  0  0  0  0
  6  5  1  0  0  0  0
  7  8  1  0  0  0  0
  8  3  2  0  0  0  0
  9 10  1  0  0  0  0
 10 11  1  0  0  0  0
 12 13  1  0  0  0  0
 13 14  2  0  0  0  0
 13 16  1  0  0  0  0
 15 12  1  0  0  0  0
 16 21  1  0  0  0  0
 17 18  1  0  0  0  0
 17 16  2  0  0  0  0
 18 19  2  0  0  0  0
 19 20  1  0  0  0  0
 21 20  2  0  0  0  0
 22 24  1  0  0  0  0
 22  2  1  0  0  0  0
 23 22  2  0  0  0  0
 24 25  1  0  0  0  0
 26 24  1  0  0  0  0
 27 26  1  0  0  0  0
 28 26  1  0  0  0  0
 28 29  2  0  0  0  0
 30 31  1  0  0  0  0
 30 28  1  0  0  0  0
 32 30  1  0  0  0  0
M  END
>  <MODEL>
4

>  <REMARK>
 VINA RESULT:      -8.0      4.776      7.456
  Name = CHEMBL2413400-4000
  10 active torsions:
  status: ('A' for Active; 'I' for Inactive)
    1  A    between atoms: C_1  and  N_2
    2  A    between atoms: N_2  and  C_3
    3  A    between atoms: N_2  and  C_4
    4  A    between atoms: C_7  and  C_8
    5  A    between atoms: C_9  and  N_10
    6  A    between atoms: C_9  and  C_19
    7  A    between atoms: C_11  and  C_13
    8  A    between atoms: N_21  and  N_22
    9  A    between atoms: N_22  and  C_23
   10  A    between atoms: C_23  and  N_24
                            x       y       z     vdW  Elec       q    Type
                         _______ _______ _______ _____ _____    ______ ____

>  <TORSDO>
F 8

>  <rfscore_v2>
7.1659390288600315

>  <vina_affinity>
-7.8091662915188556

>  <vina_gauss1>
84.46425703967226

>  <vina_gauss2>
1260.8734497770238

>  <vina_repulsion>
0.344251460944319

>  <vina_hydrophobic>
64.88772771004392

>  <vina_hydrogen>
0.7142585640757135

>  <vina_intra_gauss1>
26.044694525445724

>  <vina_intra_gauss2>
236.7532933255857

>  <vina_intra_repulsion>
1.4179647218511537

>  <vina_intra_hydrophobic>
6.197739657050642

>  <vina_intra_hydrogen>
0.6432383077230978

>  <vina_num_rotors>
9.0

>  <rfscore_v3>
6.786700924353424

>  <PLEClinear_p5_l1_s65536>
1.767870264344659

>  <nnscore>
6.68711282589352

$$$$
CHEMBL2413400-4000
 OpenBabel12202021053D

 32 33  0  0  0  0  0  0  0  0999 V2000
   -1.0810   49.9380   64.5170 C   0  0  0  0  0  2  0  0  0  0  0  0
   -1.6850   49.6790   65.6920 C   0  0  0  0  0  0  0  0  0  0  0  0
    2.8090   48.9480   62.9140 C   0  0  0  0  0  0  0  0  0  0  0  0
    2.1660   48.1410   63.8650 C   0  0  0  0  0  3  0  0  0  0  0  0
    0.9420   48.5020   64.4490 C   0  0  0  0  0  3  0  0  0  0  0  0
    0.2990   49.6830   64.0850 C   0  0  0  0  0  0  0  0  0  0  0  0
    0.9280   50.5200   63.1630 C   0  0  0  0  0  3  0  0  0  0  0  0
    2.1600   50.1540   62.5900 C   0  0  0  0  0  3  0  0  0  0  0  0
    4.5380   49.3980   61.2080 C   0  0  0  0  0  1  0  0  0  0  0  0
    4.0000   48.5670   62.2810 N   0  0  0  0  0  0  0  0  0  0  0  0
    4.2780   47.1360   62.1880 C   0  0  0  0  0  1  0  0  0  0  0  0
   -1.1090   49.0180   66.7700 N   0  0  0  0  0  4  0  0  0  0  0  0
   -0.4030   49.6920   67.7530 C   0  0  0  0  0  0  0  0  0  0  0  0
   -0.1020   50.8780   67.6960 O   0  0  0  0  0  0  0  0  0  0  0  0
   -0.8070   48.0660   66.6020 H   0  0  0  0  0  0  0  0  0  0  0  0
    0.1320   48.8660   68.8710 C   0  0  0  0  0  0  0  0  0  0  0  0
    1.2020   48.0040   68.5920 C   0  0  0  0  0  3  0  0  0  0  0  0
    1.8220   47.2930   69.6190 C   0  0  0  0  0  3  0  0  0  0  0  0
    1.3740   47.4410   70.9300 C   0  0  0  0  0  3  0  0  0  0  0  0
    0.2920   48.2760   71.2120 C   0  0  0  0  0  3  0  0  0  0  0  0
   -0.3370   48.9880   70.1850 C   0  0  0  0  0  3  0  0  0  0  0  0
   -3.0910   50.2000   65.8410 C   0  0  0  0  0  0  0  0  0  0  0  0
   -3.3900   51.1140   66.6050 O   0  0  0  0  0  0  0  0  0  0  0  0
   -4.0050   49.5980   64.9880 N   0  0  0  0  0  0  0  0  0  0  0  0
   -3.6550   49.1980   64.1200 H   0  0  0  0  0  0  0  0  0  0  0  0
   -5.2720   50.2020   64.9080 N   0  0  0  0  0  0  0  0  0  0  0  0
   -5.2910   51.2140   64.7680 H   0  0  0  0  0  0  0  0  0  0  0  0
   -6.4100   49.5620   65.2900 C   0  0  0  0  0  0  0  0  0  0  0  0
   -7.1870   48.4730   64.3090 S   0  0  0  0  0  0  0  0  0  0  0  0
   -6.8710   49.8320   66.5350 N   0  0  0  0  0  0  0  0  0  0  0  0
   -7.8660   49.9670   66.6370 H   0  0  0  0  0  0  0  0  0  0  0  0
   -6.4040   49.3580   67.2980 H   0  0  0  0  0  0  0  0  0  0  0  0
  1  2  1  0  0  0  0
  2 22  1  0  0  0  0
  2 12  2  3  0  0  0
  3  4  1  0  0  0  0
  4  5  2  0  0  0  0
  6  5  1  0  0  0  0
  6  1  1  0  0  0  0
  7  6  2  0  0  0  0
  8  3  2  0  0  0  0
  8  7  1  0  0  0  0
  9 10  1  0  0  0  0
 10  3  1  0  0  0  0
 11 10  1  0  0  0  0
 12 13  1  0  0  0  0
 13 16  1  0  0  0  0
 14 13  2  0  0  0  0
 15 12  1  0  0  0  0
 16 21  1  0  0  0  0
 17 16  2  0  0  0  0
 17 18  1  0  0  0  0
 18 19  2  0  0  0  0
 19 20  1  0  0  0  0
 21 20  2  0  0  0  0
 22 23  2  0  0  0  0
 24 22  1  0  0  0  0
 25 24  1  0  0  0  0
 26 24  1  0  0  0  0
 26 28  1  0  0  0  0
 27 26  1  0  0  0  0
 28 30  1  0  0  0  0
 29 28  2  0  0  0  0
 30 31  1  0  0  0  0
 30 32  1  0  0  0  0
M  END
>  <MODEL>
5

>  <REMARK>
 VINA RESULT:      -7.9      1.449      1.887
  Name = CHEMBL2413400-4000
  10 active torsions:
  status: ('A' for Active; 'I' for Inactive)
    1  A    between atoms: C_1  and  N_2
    2  A    between atoms: N_2  and  C_3
    3  A    between atoms: N_2  and  C_4
    4  A    between atoms: C_7  and  C_8
    5  A    between atoms: C_9  and  N_10
    6  A    between atoms: C_9  and  C_19
    7  A    between atoms: C_11  and  C_13
    8  A    between atoms: N_21  and  N_22
    9  A    between atoms: N_22  and  C_23
   10  A    between atoms: C_23  and  N_24
                            x       y       z     vdW  Elec       q    Type
                         _______ _______ _______ _____ _____    ______ ____

>  <TORSDO>
F 8

>  <rfscore_v2>
7.039082776501282

>  <vina_affinity>
-7.5263476644052325

>  <vina_gauss1>
80.81885598017871

>  <vina_gauss2>
1289.0477564091761

>  <vina_repulsion>
0.6057838481354489

>  <vina_hydrophobic>
60.763136356679055

>  <vina_hydrogen>
0.5730909030037784

>  <vina_intra_gauss1>
28.72754985609764

>  <vina_intra_gauss2>
234.08101482338645

>  <vina_intra_repulsion>
0.6998167290703667

>  <vina_intra_hydrophobic>
8.022073325778495

>  <vina_intra_hydrogen>
0.0

>  <vina_num_rotors>
9.0

>  <rfscore_v3>
6.7083862195027155

>  <PLEClinear_p5_l1_s65536>
1.384061353517778

>  <nnscore>
6.626296434846735

$$$$
CHEMBL2413400-4000
 OpenBabel12202021053D

 32 33  0  0  0  0  0  0  0  0999 V2000
   -1.5320   50.0740   68.4520 C   0  0  0  0  0  2  0  0  0  0  0  0
   -1.7260   49.0800   69.3400 C   0  0  0  0  0  0  0  0  0  0  0  0
   -3.4990   51.3790   64.8320 C   0  0  0  0  0  0  0  0  0  0  0  0
   -4.1740   51.2930   66.0590 C   0  0  0  0  0  3  0  0  0  0  0  0
   -3.5610   50.7900   67.2180 C   0  0  0  0  0  3  0  0  0  0  0  0
   -2.2330   50.3720   67.1970 C   0  0  0  0  0  0  0  0  0  0  0  0
   -1.5440   50.4200   65.9850 C   0  0  0  0  0  3  0  0  0  0  0  0
   -2.1710   50.9170   64.8270 C   0  0  0  0  0  3  0  0  0  0  0  0
   -5.4730   51.6220   63.3660 C   0  0  0  0  0  1  0  0  0  0  0  0
   -4.0830   51.9360   63.6860 N   0  0  0  0  0  0  0  0  0  0  0  0
   -3.2050   52.1970   62.5490 C   0  0  0  0  0  1  0  0  0  0  0  0
   -2.7310   48.1230   69.2770 N   0  0  0  0  0  4  0  0  0  0  0  0
   -2.4750   46.8110   68.9140 C   0  0  0  0  0  0  0  0  0  0  0  0
   -1.3990   46.4110   68.4860 O   0  0  0  0  0  0  0  0  0  0  0  0
   -3.6560   48.4600   69.0390 H   0  0  0  0  0  0  0  0  0  0  0  0
   -3.6380   45.8810   68.9210 C   0  0  0  0  0  0  0  0  0  0  0  0
   -3.7130   44.9360   69.9540 C   0  0  0  0  0  3  0  0  0  0  0  0
   -4.8340   44.1170   70.0810 C   0  0  0  0  0  3  0  0  0  0  0  0
   -5.8860   44.2390   69.1770 C   0  0  0  0  0  3  0  0  0  0  0  0
   -5.8080   45.1580   68.1290 C   0  0  0  0  0  3  0  0  0  0  0  0
   -4.6830   45.9790   67.9930 C   0  0  0  0  0  3  0  0  0  0  0  0
   -0.7260   48.9940   70.4650 C   0  0  0  0  0  0  0  0  0  0  0  0
   -0.9210   49.4870   71.5730 O   0  0  0  0  0  0  0  0  0  0  0  0
    0.4030   48.2520   70.1550 N   0  0  0  0  0  0  0  0  0  0  0  0
    0.3210   47.5360   69.4350 H   0  0  0  0  0  0  0  0  0  0  0  0
    1.2540   47.9350   71.2280 N   0  0  0  0  0  0  0  0  0  0  0  0
    1.2030   48.5420   72.0490 H   0  0  0  0  0  0  0  0  0  0  0  0
    2.2990   47.0740   71.1020 C   0  0  0  0  0  0  0  0  0  0  0  0
    3.4140   46.8500   72.3090 S   0  0  0  0  0  0  0  0  0  0  0  0
    2.3730   46.3730   69.9440 N   0  0  0  0  0  0  0  0  0  0  0  0
    2.2550   45.3730   70.0050 H   0  0  0  0  0  0  0  0  0  0  0  0
    1.9830   46.8200   69.1240 H   0  0  0  0  0  0  0  0  0  0  0  0
  1  2  1  0  0  0  0
  2 22  1  0  0  0  0
  3  4  1  0  0  0  0
  4  5  2  0  0  0  0
  6  5  1  0  0  0  0
  6  1  1  0  0  0  0
  7  6  2  0  0  0  0
  8  3  2  0  0  0  0
  8  7  1  0  0  0  0
  9 10  1  0  0  0  0
 10  3  1  0  0  0  0
 11 10  1  0  0  0  0
 12  2  2  0  0  0  0
 13 16  1  0  0  0  0
 13 12  1  0  0  0  0
 14 13  2  0  0  0  0
 15 12  1  0  0  0  0
 16 17  1  0  0  0  0
 17 18  2  0  0  0  0
 19 18  1  0  0  0  0
 20 19  2  0  0  0  0
 21 20  1  0  0  0  0
 21 16  2  0  0  0  0
 22 23  2  0  0  0  0
 24 22  1  0  0  0  0
 24 26  1  0  0  0  0
 25 24  1  0  0  0  0
 26 27  1  0  0  0  0
 28 26  1  0  0  0  0
 28 29  2  0  0  0  0
 30 31  1  0  0  0  0
 30 28  1  0  0  0  0
 32 30  1  0  0  0  0
M  END
>  <MODEL>
6

>  <REMARK>
 VINA RESULT:      -7.8      4.555      7.345
  Name = CHEMBL2413400-4000
  10 active torsions:
  status: ('A' for Active; 'I' for Inactive)
    1  A    between atoms: C_1  and  N_2
    2  A    between atoms: N_2  and  C_3
    3  A    between atoms: N_2  and  C_4
    4  A    between atoms: C_7  and  C_8
    5  A    between atoms: C_9  and  N_10
    6  A    between atoms: C_9  and  C_19
    7  A    between atoms: C_11  and  C_13
    8  A    between atoms: N_21  and  N_22
    9  A    between atoms: N_22  and  C_23
   10  A    between atoms: C_23  and  N_24
                            x       y       z     vdW  Elec       q    Type
                         _______ _______ _______ _____ _____    ______ ____

>  <TORSDO>
F 8

>  <rfscore_v2>
7.68749929420579

>  <vina_affinity>
-6.841317479981779

>  <vina_gauss1>
101.80086494168731

>  <vina_gauss2>
1293.4953328332285

>  <vina_repulsion>
2.6102984531257314

>  <vina_hydrophobic>
42.05470692033399

>  <vina_hydrogen>
1.4672145001201884

>  <vina_intra_gauss1>
20.664191782604853

>  <vina_intra_gauss2>
239.84095013017205

>  <vina_intra_repulsion>
0.7554371391832322

>  <vina_intra_hydrophobic>
3.1917765878402804

>  <vina_intra_hydrogen>
1.2299021829469898

>  <vina_num_rotors>
9.0

>  <rfscore_v3>
7.442076913697411

>  <PLEClinear_p5_l1_s65536>
3.2827140341426215

>  <nnscore>
6.785221389732269

$$$$
CHEMBL2413400-4000
 OpenBabel12202021053D

 32 33  0  0  0  0  0  0  0  0999 V2000
    1.5720   48.4320   65.2460 C   0  0  0  0  0  2  0  0  0  0  0  0
    0.3660   48.5370   65.8370 C   0  0  0  0  0  0  0  0  0  0  0  0
    3.1830   49.9720   61.5430 C   0  0  0  0  0  0  0  0  0  0  0  0
    2.1420   50.6150   62.2290 C   0  0  0  0  0  3  0  0  0  0  0  0
    1.5600   50.0740   63.3870 C   0  0  0  0  0  3  0  0  0  0  0  0
    2.0170   48.8700   63.9180 C   0  0  0  0  0  0  0  0  0  0  0  0
    3.0310   48.1930   63.2420 C   0  0  0  0  0  3  0  0  0  0  0  0
    3.6020   48.7390   62.0770 C   0  0  0  0  0  3  0  0  0  0  0  0
    3.2460   51.7360   59.8150 C   0  0  0  0  0  1  0  0  0  0  0  0
    3.8110   50.5340   60.4230 N   0  0  0  0  0  0  0  0  0  0  0  0
    4.5070   49.6210   59.5200 C   0  0  0  0  0  1  0  0  0  0  0  0
   -0.7430   49.1790   65.3030 N   0  0  0  0  0  4  0  0  0  0  0  0
   -1.0910   50.4700   65.6670 C   0  0  0  0  0  0  0  0  0  0  0  0
   -0.5580   51.0990   66.5730 O   0  0  0  0  0  0  0  0  0  0  0  0
   -1.5190   48.5860   65.0370 H   0  0  0  0  0  0  0  0  0  0  0  0
   -2.2840   51.0520   64.9910 C   0  0  0  0  0  0  0  0  0  0  0  0
   -2.1140   51.5770   63.7020 C   0  0  0  0  0  3  0  0  0  0  0  0
   -3.2140   52.0290   62.9740 C   0  0  0  0  0  3  0  0  0  0  0  0
   -4.4890   51.9570   63.5300 C   0  0  0  0  0  3  0  0  0  0  0  0
   -4.6630   51.4610   64.8230 C   0  0  0  0  0  3  0  0  0  0  0  0
   -3.5630   51.0110   65.5610 C   0  0  0  0  0  3  0  0  0  0  0  0
    0.2230   47.8510   67.1720 C   0  0  0  0  0  0  0  0  0  0  0  0
   -0.8600   47.6870   67.7270 O   0  0  0  0  0  0  0  0  0  0  0  0
    1.4160   47.3650   67.6830 N   0  0  0  0  0  0  0  0  0  0  0  0
    2.1600   47.1400   67.0250 H   0  0  0  0  0  0  0  0  0  0  0  0
    1.3160   46.5130   68.7960 N   0  0  0  0  0  0  0  0  0  0  0  0
    0.7570   45.6660   68.6770 H   0  0  0  0  0  0  0  0  0  0  0  0
    1.6690   46.9050   70.0500 C   0  0  0  0  0  0  0  0  0  0  0  0
    0.6840   47.8490   70.9940 S   0  0  0  0  0  0  0  0  0  0  0  0
    2.8620   46.4590   70.5140 N   0  0  0  0  0  0  0  0  0  0  0  0
    3.5190   46.1150   69.8310 H   0  0  0  0  0  0  0  0  0  0  0  0
    3.2540   46.9650   71.2980 H   0  0  0  0  0  0  0  0  0  0  0  0
  1  2  1  0  0  0  0
  2 22  1  0  0  0  0
  3  8  2  0  0  0  0
  3  4  1  0  0  0  0
  4  5  2  0  0  0  0
  5  6  1  0  0  0  0
  6  1  1  0  0  0  0
  7  6  2  0  0  0  0
  8  7  1  0  0  0  0
  9 10  1  0  0  0  0
 10  3  1  0  0  0  0
 11 10  1  0  0  0  0
 12 13  1  0  0  0  0
 12  2  2  3  0  0  0
 13 14  2  0  0  0  0
 15 12  1  0  0  0  0
 16 21  1  0  0  0  0
 16 13  1  0  0  0  0
 17 16  2  0  0  0  0
 18 19  2  0  0  0  0
 18 17  1  0  0  0  0
 19 20  1  0  0  0  0
 20 21  2  0  0  0  0
 22 24  1  0  0  0  0
 22 23  2  0  0  0  0
 24 26  1  0  0  0  0
 25 24  1  0  0  0  0
 26 28  1  0  0  0  0
 27 26  1  0  0  0  0
 28 30  1  0  0  0  0
 28 29  2  0  0  0  0
 30 32  1  0  0  0  0
 31 30  1  0  0  0  0
M  END
>  <MODEL>
7

>  <REMARK>
 VINA RESULT:      -7.7      2.793      6.235
  Name = CHEMBL2413400-4000
  10 active torsions:
  status: ('A' for Active; 'I' for Inactive)
    1  A    between atoms: C_1  and  N_2
    2  A    between atoms: N_2  and  C_3
    3  A    between atoms: N_2  and  C_4
    4  A    between atoms: C_7  and  C_8
    5  A    between atoms: C_9  and  N_10
    6  A    between atoms: C_9  and  C_19
    7  A    between atoms: C_11  and  C_13
    8  A    between atoms: N_21  and  N_22
    9  A    between atoms: N_22  and  C_23
   10  A    between atoms: C_23  and  N_24
                            x       y       z     vdW  Elec       q    Type
                         _______ _______ _______ _____ _____    ______ ____

>  <TORSDO>
F 8

>  <rfscore_v2>
7.234498777056278

>  <vina_affinity>
-7.252168637294007

>  <vina_gauss1>
86.27220700370763

>  <vina_gauss2>
1223.1055378606907

>  <vina_repulsion>
0.7585038909146892

>  <vina_hydrophobic>
49.797848323300215

>  <vina_hydrogen>
0.9832352169619232

>  <vina_intra_gauss1>
29.93499122597374

>  <vina_intra_gauss2>
236.75385255893548

>  <vina_intra_repulsion>
0.9651629186721925

>  <vina_intra_hydrophobic>
8.890736582960736

>  <vina_intra_hydrogen>
0.0

>  <vina_num_rotors>
9.0

>  <rfscore_v3>
7.02416086219336

>  <PLEClinear_p5_l1_s65536>
3.6720403639692347

>  <nnscore>
6.5461128894592395

$$$$
CHEMBL2413400-4000
 OpenBabel12202021053D

 32 33  0  0  0  0  0  0  0  0999 V2000
    1.4100   47.6910   66.5680 C   0  0  0  0  0  2  0  0  0  0  0  0
    0.2630   47.9850   67.2090 C   0  0  0  0  0  0  0  0  0  0  0  0
    2.9180   48.4900   62.5970 C   0  0  0  0  0  0  0  0  0  0  0  0
    2.1760   49.4370   63.3190 C   0  0  0  0  0  3  0  0  0  0  0  0
    1.6130   49.1520   64.5730 C   0  0  0  0  0  3  0  0  0  0  0  0
    1.7930   47.9050   65.1670 C   0  0  0  0  0  0  0  0  0  0  0  0
    2.5030   46.9330   64.4610 C   0  0  0  0  0  3  0  0  0  0  0  0
    3.0540   47.2270   63.2000 C   0  0  0  0  0  3  0  0  0  0  0  0
    3.0450   48.1490   60.1540 C   0  0  0  0  0  1  0  0  0  0  0  0
    3.5340   48.7860   61.3730 N   0  0  0  0  0  0  0  0  0  0  0  0
    4.9580   49.1100   61.4040 C   0  0  0  0  0  1  0  0  0  0  0  0
   -0.8250   48.6510   66.6580 N   0  0  0  0  0  4  0  0  0  0  0  0
   -0.9800   50.0230   66.7700 C   0  0  0  0  0  0  0  0  0  0  0  0
   -0.2740   50.7420   67.4670 O   0  0  0  0  0  0  0  0  0  0  0  0
   -1.6880   48.1250   66.5990 H   0  0  0  0  0  0  0  0  0  0  0  0
   -2.1730   50.6130   66.1020 C   0  0  0  0  0  0  0  0  0  0  0  0
   -2.0440   51.0090   64.7640 C   0  0  0  0  0  3  0  0  0  0  0  0
   -3.1540   51.4590   64.0510 C   0  0  0  0  0  3  0  0  0  0  0  0
   -4.4000   51.5150   64.6730 C   0  0  0  0  0  3  0  0  0  0  0  0
   -4.5310   51.1480   66.0130 C   0  0  0  0  0  3  0  0  0  0  0  0
   -3.4200   50.7000   66.7350 C   0  0  0  0  0  3  0  0  0  0  0  0
    0.1590   47.5000   68.6320 C   0  0  0  0  0  0  0  0  0  0  0  0
    0.2320   48.2490   69.6020 O   0  0  0  0  0  0  0  0  0  0  0  0
   -0.0940   46.1410   68.7440 N   0  0  0  0  0  0  0  0  0  0  0  0
   -0.5630   45.6770   67.9680 H   0  0  0  0  0  0  0  0  0  0  0  0
   -0.4380   45.6750   70.0240 N   0  0  0  0  0  0  0  0  0  0  0  0
    0.2970   45.2040   70.5550 H   0  0  0  0  0  0  0  0  0  0  0  0
   -1.7300   45.5680   70.4400 C   0  0  0  0  0  0  0  0  0  0  0  0
   -2.9840   45.3280   69.3810 S   0  0  0  0  0  0  0  0  0  0  0  0
   -1.9460   45.6330   71.7760 N   0  0  0  0  0  0  0  0  0  0  0  0
   -1.4560   44.9670   72.3530 H   0  0  0  0  0  0  0  0  0  0  0  0
   -2.0650   46.5600   72.1650 H   0  0  0  0  0  0  0  0  0  0  0  0
  1  2  1  0  0  0  0
  2 22  1  0  0  0  0
  3  8  2  0  0  0  0
  3  4  1  0  0  0  0
  4  5  2  0  0  0  0
  5  6  1  0  0  0  0
  6  1  1  0  0  0  0
  7  6  2  0  0  0  0
  8  7  1  0  0  0  0
  9 10  1  0  0  0  0
 10 11  1  0  0  0  0
 10  3  1  0  0  0  0
 12 13  1  0  0  0  0
 12  2  2  3  0  0  0
 13 14  2  0  0  0  0
 15 12  1  0  0  0  0
 16 21  1  0  0  0  0
 16 13  1  0  0  0  0
 17 16  2  0  0  0  0
 18 19  2  0  0  0  0
 18 17  1  0  0  0  0
 19 20  1  0  0  0  0
 20 21  2  0  0  0  0
 22 24  1  0  0  0  0
 22 23  2  0  0  0  0
 24 26  1  0  0  0  0
 25 24  1  0  0  0  0
 26 28  1  0  0  0  0
 26 27  1  0  0  0  0
 28 30  1  0  0  0  0
 29 28  2  0  0  0  0
 30 32  1  0  0  0  0
 30 31  1  0  0  0  0
M  END
>  <MODEL>
8

>  <REMARK>
 VINA RESULT:      -7.7      2.725      5.644
  Name = CHEMBL2413400-4000
  10 active torsions:
  status: ('A' for Active; 'I' for Inactive)
    1  A    between atoms: C_1  and  N_2
    2  A    between atoms: N_2  and  C_3
    3  A    between atoms: N_2  and  C_4
    4  A    between atoms: C_7  and  C_8
    5  A    between atoms: C_9  and  N_10
    6  A    between atoms: C_9  and  C_19
    7  A    between atoms: C_11  and  C_13
    8  A    between atoms: N_21  and  N_22
    9  A    between atoms: N_22  and  C_23
   10  A    between atoms: C_23  and  N_24
                            x       y       z     vdW  Elec       q    Type
                         _______ _______ _______ _____ _____    ______ ____

>  <TORSDO>
F 8

>  <rfscore_v2>
7.393297348569733

>  <vina_affinity>
-6.748908569803903

>  <vina_gauss1>
83.11819457429951

>  <vina_gauss2>
1323.780327898239

>  <vina_repulsion>
1.9038075828076497

>  <vina_hydrophobic>
46.47472796793721

>  <vina_hydrogen>
0.8184499674438005

>  <vina_intra_gauss1>
27.936495832569822

>  <vina_intra_gauss2>
248.72511948588854

>  <vina_intra_repulsion>
0.6904479699202928

>  <vina_intra_hydrophobic>
8.258862495959303

>  <vina_intra_hydrogen>
0.0

>  <vina_num_rotors>
9.0

>  <rfscore_v3>
6.980356451048949

>  <PLEClinear_p5_l1_s65536>
4.554725557520394

>  <nnscore>
6.23960763282881

$$$$
CHEMBL2413400-4000
 OpenBabel12202021053D

 32 33  0  0  0  0  0  0  0  0999 V2000
   -1.6360   50.5560   65.8870 C   0  0  0  0  0  2  0  0  0  0  0  0
   -1.8190   50.3050   67.1980 C   0  0  0  0  0  0  0  0  0  0  0  0
    1.7050   50.0320   63.1960 C   0  0  0  0  0  0  0  0  0  0  0  0
    1.4620   49.1550   64.2640 C   0  0  0  0  0  3  0  0  0  0  0  0
    0.4280   49.3700   65.1900 C   0  0  0  0  0  3  0  0  0  0  0  0
   -0.4220   50.4660   65.0670 C   0  0  0  0  0  0  0  0  0  0  0  0
   -0.1880   51.3710   64.0310 C   0  0  0  0  0  3  0  0  0  0  0  0
    0.8580   51.1520   63.1140 C   0  0  0  0  0  3  0  0  0  0  0  0
    2.7650   50.6480   61.0510 C   0  0  0  0  0  1  0  0  0  0  0  0
    2.6950   49.7930   62.2330 N   0  0  0  0  0  0  0  0  0  0  0  0
    3.1340   48.4120   62.0540 C   0  0  0  0  0  1  0  0  0  0  0  0
   -0.8560   49.8150   68.0700 N   0  0  0  0  0  4  0  0  0  0  0  0
   -0.6790   48.4570   68.2830 C   0  0  0  0  0  0  0  0  0  0  0  0
   -1.4260   47.5880   67.8500 O   0  0  0  0  0  0  0  0  0  0  0  0
   -0.6240   50.4060   68.8590 H   0  0  0  0  0  0  0  0  0  0  0  0
    0.4130   48.0680   69.2180 C   0  0  0  0  0  0  0  0  0  0  0  0
    0.2270   48.3230   70.5830 C   0  0  0  0  0  3  0  0  0  0  0  0
    1.1600   47.8780   71.5180 C   0  0  0  0  0  3  0  0  0  0  0  0
    2.2840   47.1730   71.0920 C   0  0  0  0  0  3  0  0  0  0  0  0
    2.4910   46.9390   69.7320 C   0  0  0  0  0  3  0  0  0  0  0  0
    1.5600   47.3880   68.7880 C   0  0  0  0  0  3  0  0  0  0  0  0
   -3.1830   50.6330   67.7490 C   0  0  0  0  0  0  0  0  0  0  0  0
   -3.6390   51.7730   67.7730 O   0  0  0  0  0  0  0  0  0  0  0  0
   -3.9010   49.5220   68.1640 N   0  0  0  0  0  0  0  0  0  0  0  0
   -3.6820   48.6250   67.7360 H   0  0  0  0  0  0  0  0  0  0  0  0
   -5.2590   49.7340   68.4600 N   0  0  0  0  0  0  0  0  0  0  0  0
   -5.4670   50.2750   69.3020 H   0  0  0  0  0  0  0  0  0  0  0  0
   -6.2560   49.0280   67.8610 C   0  0  0  0  0  0  0  0  0  0  0  0
   -6.6900   47.5080   68.3640 S   0  0  0  0  0  0  0  0  0  0  0  0
   -6.9100   49.6400   66.8450 N   0  0  0  0  0  0  0  0  0  0  0  0
   -7.8830   49.4070   66.7180 H   0  0  0  0  0  0  0  0  0  0  0  0
   -6.6540   50.6030   66.6630 H   0  0  0  0  0  0  0  0  0  0  0  0
  1  2  1  0  0  0  0
  2 22  1  0  0  0  0
  2 12  2  3  0  0  0
  3  4  1  0  0  0  0
  4  5  2  0  0  0  0
  6  5  1  0  0  0  0
  6  1  1  0  0  0  0
  7  6  2  0  0  0  0
  8  3  2  0  0  0  0
  8  7  1  0  0  0  0
  9 10  1  0  0  0  0
 10  3  1  0  0  0  0
 11 10  1  0  0  0  0
 12 13  1  0  0  0  0
 12 15  1  0  0  0  0
 13 16  1  0  0  0  0
 14 13  2  0  0  0  0
 16 17  1  0  0  0  0
 17 18  2  0  0  0  0
 19 18  1  0  0  0  0
 20 19  2  0  0  0  0
 21 16  2  0  0  0  0
 21 20  1  0  0  0  0
 22 23  2  0  0  0  0
 22 24  1  0  0  0  0
 24 26  1  0  0  0  0
 25 24  1  0  0  0  0
 26 27  1  0  0  0  0
 28 29  2  0  0  0  0
 28 26  1  0  0  0  0
 30 28  1  0  0  0  0
 31 30  1  0  0  0  0
 32 30  1  0  0  0  0
M  END
>  <MODEL>
9

>  <REMARK>
 VINA RESULT:      -7.6      2.088      2.474
  Name = CHEMBL2413400-4000
  10 active torsions:
  status: ('A' for Active; 'I' for Inactive)
    1  A    between atoms: C_1  and  N_2
    2  A    between atoms: N_2  and  C_3
    3  A    between atoms: N_2  and  C_4
    4  A    between atoms: C_7  and  C_8
    5  A    between atoms: C_9  and  N_10
    6  A    between atoms: C_9  and  C_19
    7  A    between atoms: C_11  and  C_13
    8  A    between atoms: N_21  and  N_22
    9  A    between atoms: N_22  and  C_23
   10  A    between atoms: C_23  and  N_24
                            x       y       z     vdW  Elec       q    Type
                         _______ _______ _______ _____ _____    ______ ____

>  <TORSDO>
F 8

>  <rfscore_v2>
7.179795635808634

>  <vina_affinity>
-7.279320963730686

>  <vina_gauss1>
91.66583170151127

>  <vina_gauss2>
1288.661188060288

>  <vina_repulsion>
1.0860844453191494

>  <vina_hydrophobic>
56.81119244720337

>  <vina_hydrogen>
0.1998742612287062

>  <vina_intra_gauss1>
25.655302798165124

>  <vina_intra_gauss2>
237.052055743146

>  <vina_intra_repulsion>
1.273666834524006

>  <vina_intra_hydrophobic>
7.483687589126724

>  <vina_intra_hydrogen>
0.9809400564070575

>  <vina_num_rotors>
9.0

>  <rfscore_v3>
6.921322675824173

>  <PLEClinear_p5_l1_s65536>
2.0313668728299143

>  <nnscore>
6.989047262211047

$$$$
