CHEMBL4077482-5.4
 OpenBabel12202021073D

 32 35  0  0  0  0  0  0  0  0999 V2000
   -1.0700   48.1510   67.2410 N   0  0  0  0  0  0  0  0  0  0  0  0
    3.5730   47.3340   73.9240 N   0  0  0  0  0  0  0  0  0  0  0  0
    3.3590   47.1070   72.6310 C   0  0  0  0  0  0  0  0  0  0  0  0
    4.2360   46.5690   71.7910 N   0  0  0  0  0  0  0  0  0  0  0  0
    3.5250   46.5610   70.6550 N   0  0  0  0  0  0  0  0  0  0  0  0
    2.2670   47.0800   70.8310 C   0  0  0  0  0  0  0  0  0  0  0  0
    1.3480   47.1600   69.8320 N   0  0  0  0  0  0  0  0  0  0  0  0
    1.6970   47.1870   68.4160 C   0  0  0  0  0  2  0  0  0  0  0  0
    1.3860   48.5590   67.8190 C   0  0  0  0  0  2  0  0  0  0  0  0
   -0.0940   48.9760   68.0270 C   0  0  0  0  0  3  0  0  0  0  0  0
   -0.3000   48.9580   69.5640 C   0  0  0  0  0  2  0  0  0  0  0  0
   -0.0210   47.5750   70.1530 C   0  0  0  0  0  2  0  0  0  0  0  0
    2.1430   47.4010   72.0990 N   0  0  0  0  0  0  0  0  0  0  0  0
    4.3440   46.8370   74.3490 H   0  0  0  0  0  0  0  0  0  0  0  0
    2.7560   47.4390   74.5100 H   0  0  0  0  0  0  0  0  0  0  0  0
    3.9350   46.1680   69.8180 H   0  0  0  0  0  0  0  0  0  0  0  0
   -2.3980   48.0500   67.9020 C   0  0  0  0  0  2  0  0  0  0  0  0
   -3.4280   47.1150   67.2140 C   0  0  0  0  0  2  0  0  0  0  0  0
   -4.0150   46.0920   68.1700 C   0  0  0  0  0  0  0  0  0  0  0  0
   -3.2370   45.5550   69.2060 C   0  0  0  0  0  3  0  0  0  0  0  0
   -3.7660   44.5870   70.0680 C   0  0  0  0  0  3  0  0  0  0  0  0
   -5.0790   44.1550   69.8970 C   0  0  0  0  0  0  0  0  0  0  0  0
   -5.7240   42.9440   70.9330 Cl  0  0  0  0  0  0  0  0  0  0  0  0
   -5.8720   44.6980   68.8890 C   0  0  0  0  0  3  0  0  0  0  0  0
   -5.3440   45.6680   68.0330 C   0  0  0  0  0  3  0  0  0  0  0  0
   -1.1890   48.5800   65.8240 C   0  0  0  0  0  2  0  0  0  0  0  0
    0.0780   48.5650   64.9870 C   0  0  0  0  0  0  0  0  0  0  0  0
    0.8440   47.3960   64.8620 C   0  0  0  0  0  3  0  0  0  0  0  0
    2.0180   47.3810   64.1070 C   0  0  0  0  0  3  0  0  0  0  0  0
    2.4420   48.5360   63.4550 C   0  0  0  0  0  3  0  0  0  0  0  0
    1.6890   49.7020   63.5560 C   0  0  0  0  0  3  0  0  0  0  0  0
    0.5160   49.7140   64.3100 C   0  0  0  0  0  3  0  0  0  0  0  0
  1 17  1  0  0  0  0
  1 10  1  0  0  0  0
  2 14  1  0  0  0  0
  2 15  1  0  0  0  0
  3  2  1  0  0  0  0
  4  3  2  0  0  0  0
  5  6  1  0  0  0  0
  5  4  1  0  0  0  0
  6 13  2  0  0  0  0
  7 12  1  0  0  0  0
  7  6  1  0  0  0  0
  8  7  1  0  0  0  0
  9 10  1  0  0  0  0
  9  8  1  0  0  0  0
 10 11  1  0  0  0  0
 11 12  1  0  0  0  0
 13  3  1  0  0  0  0
 16  5  1  0  0  0  0
 18 17  1  0  0  0  0
 18 19  1  0  0  0  0
 19 20  1  0  0  0  0
 20 21  2  0  0  0  0
 22 21  1  0  0  0  0
 22 23  1  0  0  0  0
 24 22  2  0  0  0  0
 25 19  2  0  0  0  0
 25 24  1  0  0  0  0
 26  1  1  0  0  0  0
 27 26  1  0  0  0  0
 28 27  1  0  0  0  0
 29 28  2  0  0  0  0
 30 31  2  0  0  0  0
 30 29  1  0  0  0  0
 31 32  1  0  0  0  0
 32 27  2  0  0  0  0
M  END
>  <MODEL>
1

>  <REMARK>
 VINA RESULT:     -10.0      0.000      0.000
  Name = CHEMBL4077482-5.4
  6 active torsions:
  status: ('A' for Active; 'I' for Inactive)
    1  A    between atoms: C_9  and  N_10
    2  A    between atoms: N_10  and  C_11
    3  A    between atoms: N_10  and  C_20
    4  A    between atoms: C_11  and  C_12
    5  A    between atoms: C_12  and  C_13
    6  A    between atoms: C_20  and  C_21
                            x       y       z     vdW  Elec       q    Type
                         _______ _______ _______ _____ _____    ______ ____

>  <TORSDO>
F 6

>  <rfscore_v2>
7.543895305638799

>  <vina_affinity>
-10.151774849075782

>  <vina_gauss1>
131.1446043577592

>  <vina_gauss2>
1482.0417034736786

>  <vina_repulsion>
3.7187367903490367

>  <vina_hydrophobic>
73.6767934659483

>  <vina_hydrogen>
3.2992302713447685

>  <vina_intra_gauss1>
34.127476826804454

>  <vina_intra_gauss2>
261.3889361009155

>  <vina_intra_repulsion>
2.1534710168316913

>  <vina_intra_hydrophobic>
21.985396723039884

>  <vina_intra_hydrogen>
0.0

>  <vina_num_rotors>
6.0

>  <rfscore_v3>
7.439057423520923

>  <PLEClinear_p5_l1_s65536>
6.001218124592685

>  <nnscore>
7.6009519523439595

$$$$
CHEMBL4077482-5.4
 OpenBabel12202021073D

 32 35  0  0  0  0  0  0  0  0999 V2000
   -1.4560   48.8630   66.9810 N   0  0  0  0  0  0  0  0  0  0  0  0
   -8.7030   45.1100   66.4480 N   0  0  0  0  0  0  0  0  0  0  0  0
   -7.5070   45.2400   67.0170 C   0  0  0  0  0  0  0  0  0  0  0  0
   -7.1070   44.6040   68.1120 N   0  0  0  0  0  0  0  0  0  0  0  0
   -5.8600   45.0790   68.2380 N   0  0  0  0  0  0  0  0  0  0  0  0
   -5.5450   45.9690   67.2410 C   0  0  0  0  0  0  0  0  0  0  0  0
   -4.3310   46.5710   67.1380 N   0  0  0  0  0  0  0  0  0  0  0  0
   -3.4240   46.7550   68.2660 C   0  0  0  0  0  2  0  0  0  0  0  0
   -3.3130   48.2370   68.6220 C   0  0  0  0  0  2  0  0  0  0  0  0
   -2.8710   49.1070   67.4150 C   0  0  0  0  0  3  0  0  0  0  0  0
   -3.9480   48.8560   66.3290 C   0  0  0  0  0  2  0  0  0  0  0  0
   -4.0320   47.3770   65.9500 C   0  0  0  0  0  2  0  0  0  0  0  0
   -6.5820   46.0510   66.4390 N   0  0  0  0  0  0  0  0  0  0  0  0
   -9.2420   44.2950   66.7070 H   0  0  0  0  0  0  0  0  0  0  0  0
   -8.7770   45.3810   65.4770 H   0  0  0  0  0  0  0  0  0  0  0  0
   -5.2760   44.7420   68.9920 H   0  0  0  0  0  0  0  0  0  0  0  0
   -1.2400   49.1510   65.5400 C   0  0  0  0  0  2  0  0  0  0  0  0
    0.0310   49.9710   65.1940 C   0  0  0  0  0  2  0  0  0  0  0  0
    1.0750   49.1470   64.4610 C   0  0  0  0  0  0  0  0  0  0  0  0
    1.3140   47.8130   64.8240 C   0  0  0  0  0  3  0  0  0  0  0  0
    2.2990   47.0620   64.1720 C   0  0  0  0  0  3  0  0  0  0  0  0
    3.0470   47.6440   63.1510 C   0  0  0  0  0  0  0  0  0  0  0  0
    4.2800   46.7360   62.3680 Cl  0  0  0  0  0  0  0  0  0  0  0  0
    2.8050   48.9600   62.7630 C   0  0  0  0  0  3  0  0  0  0  0  0
    1.8170   49.7060   63.4110 C   0  0  0  0  0  3  0  0  0  0  0  0
   -0.4550   49.5500   67.8380 C   0  0  0  0  0  2  0  0  0  0  0  0
    0.3200   48.6920   68.8220 C   0  0  0  0  0  0  0  0  0  0  0  0
    0.0300   48.7290   70.1940 C   0  0  0  0  0  3  0  0  0  0  0  0
    0.7500   47.9540   71.1040 C   0  0  0  0  0  3  0  0  0  0  0  0
    1.7710   47.1200   70.6550 C   0  0  0  0  0  3  0  0  0  0  0  0
    2.0650   47.0600   69.2970 C   0  0  0  0  0  3  0  0  0  0  0  0
    1.3430   47.8340   68.3890 C   0  0  0  0  0  3  0  0  0  0  0  0
  1 10  1  0  0  0  0
  1 26  1  0  0  0  0
  2 14  1  0  0  0  0
  2  3  1  0  0  0  0
  3  4  2  0  0  0  0
  4  5  1  0  0  0  0
  5 16  1  0  0  0  0
  6  5  1  0  0  0  0
  7  6  1  0  0  0  0
  7  8  1  0  0  0  0
  8  9  1  0  0  0  0
 10  9  1  0  0  0  0
 11 10  1  0  0  0  0
 12 11  1  0  0  0  0
 12  7  1  0  0  0  0
 13  3  1  0  0  0  0
 13  6  2  0  0  0  0
 15  2  1  0  0  0  0
 17  1  1  0  0  0  0
 18 17  1  0  0  0  0
 19 20  1  0  0  0  0
 19 18  1  0  0  0  0
 21 20  2  0  0  0  0
 22 21  1  0  0  0  0
 23 22  1  0  0  0  0
 24 22  2  0  0  0  0
 24 25  1  0  0  0  0
 25 19  2  0  0  0  0
 26 27  1  0  0  0  0
 27 28  1  0  0  0  0
 28 29  2  0  0  0  0
 30 29  1  0  0  0  0
 31 30  2  0  0  0  0
 32 27  2  0  0  0  0
 32 31  1  0  0  0  0
M  END
>  <MODEL>
2

>  <REMARK>
 VINA RESULT:      -9.8      4.039      8.095
  Name = CHEMBL4077482-5.4
  6 active torsions:
  status: ('A' for Active; 'I' for Inactive)
    1  A    between atoms: C_9  and  N_10
    2  A    between atoms: N_10  and  C_11
    3  A    between atoms: N_10  and  C_20
    4  A    between atoms: C_11  and  C_12
    5  A    between atoms: C_12  and  C_13
    6  A    between atoms: C_20  and  C_21
                            x       y       z     vdW  Elec       q    Type
                         _______ _______ _______ _____ _____    ______ ____

>  <TORSDO>
F 6

>  <rfscore_v2>
6.973130611055607

>  <vina_affinity>
-9.198503720992045

>  <vina_gauss1>
110.47614594292104

>  <vina_gauss2>
1294.7638985748497

>  <vina_repulsion>
0.9281810508354258

>  <vina_hydrophobic>
73.87231047144724

>  <vina_hydrogen>
0.0

>  <vina_intra_gauss1>
38.017850288961554

>  <vina_intra_gauss2>
264.7050421601368

>  <vina_intra_repulsion>
0.6047426652035744

>  <vina_intra_hydrophobic>
26.334352142500364

>  <vina_intra_hydrogen>
0.0

>  <vina_num_rotors>
6.0

>  <rfscore_v3>
6.674959666111659

>  <PLEClinear_p5_l1_s65536>
4.710536659928298

>  <nnscore>
7.217903812327647

$$$$
CHEMBL4077482-5.4
 OpenBabel12202021073D

 32 35  0  0  0  0  0  0  0  0999 V2000
   -1.2690   48.7880   68.1170 N   0  0  0  0  0  0  0  0  0  0  0  0
    4.3100   48.4940   62.1430 N   0  0  0  0  0  0  0  0  0  0  0  0
    3.2070   49.0190   62.6700 C   0  0  0  0  0  0  0  0  0  0  0  0
    2.5750   50.0930   62.2110 N   0  0  0  0  0  0  0  0  0  0  0  0
    1.5560   50.1770   63.0780 N   0  0  0  0  0  0  0  0  0  0  0  0
    1.5970   49.1760   64.0170 C   0  0  0  0  0  0  0  0  0  0  0  0
    0.6610   49.0330   64.9920 N   0  0  0  0  0  0  0  0  0  0  0  0
   -0.1740   50.1280   65.4750 C   0  0  0  0  0  2  0  0  0  0  0  0
    0.2060   50.4910   66.9100 C   0  0  0  0  0  2  0  0  0  0  0  0
    0.1280   49.2770   67.8730 C   0  0  0  0  0  3  0  0  0  0  0  0
    1.0990   48.2290   67.2690 C   0  0  0  0  0  2  0  0  0  0  0  0
    0.6950   47.8420   65.8460 C   0  0  0  0  0  2  0  0  0  0  0  0
    2.6310   48.4140   63.7430 N   0  0  0  0  0  0  0  0  0  0  0  0
    4.5330   48.7660   61.1960 H   0  0  0  0  0  0  0  0  0  0  0  0
    4.5080   47.5280   62.3700 H   0  0  0  0  0  0  0  0  0  0  0  0
    0.8650   50.9050   62.9610 H   0  0  0  0  0  0  0  0  0  0  0  0
   -1.3580   47.8600   69.2740 C   0  0  0  0  0  2  0  0  0  0  0  0
   -1.4020   46.3480   68.9290 C   0  0  0  0  0  2  0  0  0  0  0  0
   -2.8010   45.7680   69.0280 C   0  0  0  0  0  0  0  0  0  0  0  0
   -3.7990   46.1520   68.1190 C   0  0  0  0  0  3  0  0  0  0  0  0
   -5.0990   45.6440   68.2290 C   0  0  0  0  0  3  0  0  0  0  0  0
   -5.4040   44.7460   69.2480 C   0  0  0  0  0  0  0  0  0  0  0  0
   -7.0070   44.1420   69.4060 Cl  0  0  0  0  0  0  0  0  0  0  0  0
   -4.4180   44.3350   70.1430 C   0  0  0  0  0  3  0  0  0  0  0  0
   -3.1200   44.8390   70.0280 C   0  0  0  0  0  3  0  0  0  0  0  0
   -2.2640   49.8870   68.2120 C   0  0  0  0  0  2  0  0  0  0  0  0
   -3.6330   49.6370   67.6040 C   0  0  0  0  0  0  0  0  0  0  0  0
   -4.7910   49.6860   68.3940 C   0  0  0  0  0  3  0  0  0  0  0  0
   -6.0500   49.4410   67.8430 C   0  0  0  0  0  3  0  0  0  0  0  0
   -6.1730   49.1520   66.4860 C   0  0  0  0  0  3  0  0  0  0  0  0
   -5.0370   49.1130   65.6830 C   0  0  0  0  0  3  0  0  0  0  0  0
   -3.7800   49.3590   66.2360 C   0  0  0  0  0  3  0  0  0  0  0  0
  1 26  1  0  0  0  0
  1 17  1  0  0  0  0
  2 15  1  0  0  0  0
  2  3  1  0  0  0  0
  3 13  1  0  0  0  0
  4  3  2  0  0  0  0
  4  5  1  0  0  0  0
  5  6  1  0  0  0  0
  6  7  1  0  0  0  0
  7  8  1  0  0  0  0
  7 12  1  0  0  0  0
  8  9  1  0  0  0  0
  9 10  1  0  0  0  0
 10  1  1  0  0  0  0
 11 10  1  0  0  0  0
 12 11  1  0  0  0  0
 13  6  2  0  0  0  0
 14  2  1  0  0  0  0
 16  5  1  0  0  0  0
 18 19  1  0  0  0  0
 18 17  1  0  0  0  0
 19 25  1  0  0  0  0
 20 21  1  0  0  0  0
 20 19  2  0  0  0  0
 21 22  2  0  0  0  0
 22 23  1  0  0  0  0
 22 24  1  0  0  0  0
 25 24  2  0  0  0  0
 27 26  1  0  0  0  0
 27 28  1  0  0  0  0
 29 28  2  0  0  0  0
 30 29  1  0  0  0  0
 31 32  1  0  0  0  0
 31 30  2  0  0  0  0
 32 27  2  0  0  0  0
M  END
>  <MODEL>
3

>  <REMARK>
 VINA RESULT:      -9.7      3.044      5.842
  Name = CHEMBL4077482-5.4
  6 active torsions:
  status: ('A' for Active; 'I' for Inactive)
    1  A    between atoms: C_9  and  N_10
    2  A    between atoms: N_10  and  C_11
    3  A    between atoms: N_10  and  C_20
    4  A    between atoms: C_11  and  C_12
    5  A    between atoms: C_12  and  C_13
    6  A    between atoms: C_20  and  C_21
                            x       y       z     vdW  Elec       q    Type
                         _______ _______ _______ _____ _____    ______ ____

>  <TORSDO>
F 6

>  <rfscore_v2>
7.115525773282271

>  <vina_affinity>
-8.679216750529617

>  <vina_gauss1>
87.48960367375794

>  <vina_gauss2>
1376.5398635252943

>  <vina_repulsion>
0.43864402171587513

>  <vina_hydrophobic>
53.461744205998436

>  <vina_hydrogen>
0.0

>  <vina_intra_gauss1>
51.862977677351424

>  <vina_intra_gauss2>
261.9867634554957

>  <vina_intra_repulsion>
0.5722847128863804

>  <vina_intra_hydrophobic>
43.71243821197247

>  <vina_intra_hydrogen>
0.0

>  <vina_num_rotors>
6.0

>  <rfscore_v3>
6.674259810134311

>  <PLEClinear_p5_l1_s65536>
4.005798057951957

>  <nnscore>
6.077534703646017

$$$$
CHEMBL4077482-5.4
 OpenBabel12202021073D

 32 35  0  0  0  0  0  0  0  0999 V2000
   -0.4600   48.6460   65.9620 N   0  0  0  0  0  0  0  0  0  0  0  0
   -8.4470   49.6230   64.4960 N   0  0  0  0  0  0  0  0  0  0  0  0
   -7.4220   49.5970   65.3440 C   0  0  0  0  0  0  0  0  0  0  0  0
   -7.4750   49.9540   66.6220 N   0  0  0  0  0  0  0  0  0  0  0  0
   -6.2090   49.7310   66.9990 N   0  0  0  0  0  0  0  0  0  0  0  0
   -5.4400   49.2560   65.9660 C   0  0  0  0  0  0  0  0  0  0  0  0
   -4.1270   48.9330   66.1040 N   0  0  0  0  0  0  0  0  0  0  0  0
   -3.2660   49.4840   67.1440 C   0  0  0  0  0  2  0  0  0  0  0  0
   -2.2180   50.4120   66.5290 C   0  0  0  0  0  2  0  0  0  0  0  0
   -1.3730   49.7120   65.4320 C   0  0  0  0  0  3  0  0  0  0  0  0
   -2.4070   49.2350   64.3800 C   0  0  0  0  0  2  0  0  0  0  0  0
   -3.4320   48.2790   64.9900 C   0  0  0  0  0  2  0  0  0  0  0  0
   -6.2170   49.1370   64.9140 N   0  0  0  0  0  0  0  0  0  0  0  0
   -9.3710   49.6690   64.9040 H   0  0  0  0  0  0  0  0  0  0  0  0
   -8.3710   49.0440   63.6710 H   0  0  0  0  0  0  0  0  0  0  0  0
   -5.9440   49.8910   67.9620 H   0  0  0  0  0  0  0  0  0  0  0  0
    0.0990   47.7840   64.8880 C   0  0  0  0  0  2  0  0  0  0  0  0
    1.6460   47.6920   64.8290 C   0  0  0  0  0  2  0  0  0  0  0  0
    2.2350   48.4900   63.6800 C   0  0  0  0  0  0  0  0  0  0  0  0
    3.3470   48.0090   62.9730 C   0  0  0  0  0  3  0  0  0  0  0  0
    3.9120   48.7590   61.9340 C   0  0  0  0  0  3  0  0  0  0  0  0
    3.3620   49.9940   61.5980 C   0  0  0  0  0  0  0  0  0  0  0  0
    4.0710   50.9340   60.3440 Cl  0  0  0  0  0  0  0  0  0  0  0  0
    2.2430   50.4740   62.2740 C   0  0  0  0  0  3  0  0  0  0  0  0
    1.6780   49.7210   63.3060 C   0  0  0  0  0  3  0  0  0  0  0  0
    0.6020   49.1770   66.8540 C   0  0  0  0  0  2  0  0  0  0  0  0
    0.6690   48.6140   68.2630 C   0  0  0  0  0  0  0  0  0  0  0  0
   -0.1980   49.0760   69.2640 C   0  0  0  0  0  3  0  0  0  0  0  0
   -0.1300   48.5730   70.5650 C   0  0  0  0  0  3  0  0  0  0  0  0
    0.8030   47.5900   70.8840 C   0  0  0  0  0  3  0  0  0  0  0  0
    1.6620   47.1100   69.9020 C   0  0  0  0  0  3  0  0  0  0  0  0
    1.5920   47.6130   68.6020 C   0  0  0  0  0  3  0  0  0  0  0  0
  1 26  1  0  0  0  0
  2 14  1  0  0  0  0
  2  3  1  0  0  0  0
  3  4  2  0  0  0  0
  4  5  1  0  0  0  0
  5 16  1  0  0  0  0
  6  7  1  0  0  0  0
  6  5  1  0  0  0  0
  7  8  1  0  0  0  0
  9  8  1  0  0  0  0
 10  1  1  0  0  0  0
 10  9  1  0  0  0  0
 11 12  1  0  0  0  0
 11 10  1  0  0  0  0
 12  7  1  0  0  0  0
 13  3  1  0  0  0  0
 13  6  2  0  0  0  0
 15  2  1  0  0  0  0
 17  1  1  0  0  0  0
 18 17  1  0  0  0  0
 19 18  1  0  0  0  0
 20 19  2  0  0  0  0
 21 20  1  0  0  0  0
 22 21  2  0  0  0  0
 22 24  1  0  0  0  0
 23 22  1  0  0  0  0
 24 25  2  0  0  0  0
 25 19  1  0  0  0  0
 26 27  1  0  0  0  0
 27 32  2  0  0  0  0
 27 28  1  0  0  0  0
 28 29  2  0  0  0  0
 29 30  1  0  0  0  0
 31 30  2  0  0  0  0
 32 31  1  0  0  0  0
M  END
>  <MODEL>
4

>  <REMARK>
 VINA RESULT:      -9.7      4.919      8.972
  Name = CHEMBL4077482-5.4
  6 active torsions:
  status: ('A' for Active; 'I' for Inactive)
    1  A    between atoms: C_9  and  N_10
    2  A    between atoms: N_10  and  C_11
    3  A    between atoms: N_10  and  C_20
    4  A    between atoms: C_11  and  C_12
    5  A    between atoms: C_12  and  C_13
    6  A    between atoms: C_20  and  C_21
                            x       y       z     vdW  Elec       q    Type
                         _______ _______ _______ _____ _____    ______ ____

>  <TORSDO>
F 6

>  <rfscore_v2>
6.960699252136752

>  <vina_affinity>
-9.08950218492569

>  <vina_gauss1>
86.30129900405093

>  <vina_gauss2>
1330.7881767132442

>  <vina_repulsion>
0.45830549900018885

>  <vina_hydrophobic>
77.65529443333938

>  <vina_hydrogen>
0.0

>  <vina_intra_gauss1>
39.55854968582449

>  <vina_intra_gauss2>
247.05442074732838

>  <vina_intra_repulsion>
0.28760881187620346

>  <vina_intra_hydrophobic>
19.717281331798027

>  <vina_intra_hydrogen>
0.0

>  <vina_num_rotors>
6.0

>  <rfscore_v3>
6.548421441447439

>  <PLEClinear_p5_l1_s65536>
3.354739296291659

>  <nnscore>
6.830743916603093

$$$$
CHEMBL4077482-5.4
 OpenBabel12202021073D

 32 35  0  0  0  0  0  0  0  0999 V2000
   -1.9740   49.6660   68.0830 N   0  0  0  0  0  0  0  0  0  0  0  0
    0.1600   54.1750   61.6010 N   0  0  0  0  0  0  0  0  0  0  0  0
   -0.6680   53.3150   62.1900 C   0  0  0  0  0  0  0  0  0  0  0  0
   -1.8350   52.9160   61.6970 N   0  0  0  0  0  0  0  0  0  0  0  0
   -2.2380   52.0710   62.6570 N   0  0  0  0  0  0  0  0  0  0  0  0
   -1.3270   51.9830   63.6800 C   0  0  0  0  0  0  0  0  0  0  0  0
   -1.4980   51.1750   64.7600 N   0  0  0  0  0  0  0  0  0  0  0  0
   -2.8020   50.7080   65.2190 C   0  0  0  0  0  2  0  0  0  0  0  0
   -3.1510   51.3500   66.5620 C   0  0  0  0  0  2  0  0  0  0  0  0
   -2.0660   51.0970   67.6430 C   0  0  0  0  0  3  0  0  0  0  0  0
   -0.7650   51.6900   67.0440 C   0  0  0  0  0  2  0  0  0  0  0  0
   -0.3990   51.0220   65.7180 C   0  0  0  0  0  2  0  0  0  0  0  0
   -0.3070   52.7500   63.3730 N   0  0  0  0  0  0  0  0  0  0  0  0
    0.0200   54.3340   60.6130 H   0  0  0  0  0  0  0  0  0  0  0  0
    1.1260   54.1530   61.8990 H   0  0  0  0  0  0  0  0  0  0  0  0
   -3.1110   51.5740   62.5430 H   0  0  0  0  0  0  0  0  0  0  0  0
   -3.1510   48.8610   67.6650 C   0  0  0  0  0  2  0  0  0  0  0  0
   -2.8510   47.4120   67.1960 C   0  0  0  0  0  2  0  0  0  0  0  0
   -3.4410   46.3650   68.1240 C   0  0  0  0  0  0  0  0  0  0  0  0
   -4.7730   45.9520   67.9770 C   0  0  0  0  0  3  0  0  0  0  0  0
   -5.3290   45.0110   68.8520 C   0  0  0  0  0  3  0  0  0  0  0  0
   -4.5510   44.4780   69.8770 C   0  0  0  0  0  0  0  0  0  0  0  0
   -5.2380   43.3450   70.9730 Cl  0  0  0  0  0  0  0  0  0  0  0  0
   -3.2190   44.8600   70.0200 C   0  0  0  0  0  3  0  0  0  0  0  0
   -2.6650   45.7940   69.1420 C   0  0  0  0  0  3  0  0  0  0  0  0
   -0.6950   49.0170   67.6970 C   0  0  0  0  0  2  0  0  0  0  0  0
    0.1590   48.4480   68.8160 C   0  0  0  0  0  0  0  0  0  0  0  0
   -0.1690   48.6810   70.1600 C   0  0  0  0  0  3  0  0  0  0  0  0
    0.6210   48.1730   71.1930 C   0  0  0  0  0  3  0  0  0  0  0  0
    1.7510   47.4140   70.8980 C   0  0  0  0  0  3  0  0  0  0  0  0
    2.0840   47.1600   69.5710 C   0  0  0  0  0  3  0  0  0  0  0  0
    1.2920   47.6680   68.5410 C   0  0  0  0  0  3  0  0  0  0  0  0
  2 15  1  0  0  0  0
  2  3  1  0  0  0  0
  3 13  1  0  0  0  0
  4  3  2  0  0  0  0
  4  5  1  0  0  0  0
  5  6  1  0  0  0  0
  6  7  1  0  0  0  0
  7  8  1  0  0  0  0
  7 12  1  0  0  0  0
  8  9  1  0  0  0  0
  9 10  1  0  0  0  0
 10  1  1  0  0  0  0
 11 10  1  0  0  0  0
 12 11  1  0  0  0  0
 13  6  2  0  0  0  0
 14  2  1  0  0  0  0
 16  5  1  0  0  0  0
 17  1  1  0  0  0  0
 18 17  1  0  0  0  0
 18 19  1  0  0  0  0
 19 25  1  0  0  0  0
 20 19  2  0  0  0  0
 20 21  1  0  0  0  0
 21 22  2  0  0  0  0
 22 24  1  0  0  0  0
 22 23  1  0  0  0  0
 25 24  2  0  0  0  0
 26  1  1  0  0  0  0
 26 27  1  0  0  0  0
 27 28  1  0  0  0  0
 28 29  2  0  0  0  0
 30 29  1  0  0  0  0
 31 30  2  0  0  0  0
 32 27  2  0  0  0  0
 32 31  1  0  0  0  0
M  END
>  <MODEL>
5

>  <REMARK>
 VINA RESULT:      -9.5      3.394      6.728
  Name = CHEMBL4077482-5.4
  6 active torsions:
  status: ('A' for Active; 'I' for Inactive)
    1  A    between atoms: C_9  and  N_10
    2  A    between atoms: N_10  and  C_11
    3  A    between atoms: N_10  and  C_20
    4  A    between atoms: C_11  and  C_12
    5  A    between atoms: C_12  and  C_13
    6  A    between atoms: C_20  and  C_21
                            x       y       z     vdW  Elec       q    Type
                         _______ _______ _______ _____ _____    ______ ____

>  <TORSDO>
F 6

>  <rfscore_v2>
7.217132678543677

>  <vina_affinity>
-9.514000431032033

>  <vina_gauss1>
102.16366957133874

>  <vina_gauss2>
1333.3736368825262

>  <vina_repulsion>
0.6012533640456545

>  <vina_hydrophobic>
76.60947461491219

>  <vina_hydrogen>
0.259353059771233

>  <vina_intra_gauss1>
43.22651023038108

>  <vina_intra_gauss2>
261.55652773259305

>  <vina_intra_repulsion>
3.0344461484265723

>  <vina_intra_hydrophobic>
30.40624379976228

>  <vina_intra_hydrogen>
0.0

>  <vina_num_rotors>
6.0

>  <rfscore_v3>
6.669064713009205

>  <PLEClinear_p5_l1_s65536>
1.862893468490778

>  <nnscore>
6.9984827126013895

$$$$
CHEMBL4077482-5.4
 OpenBabel12202021073D

 32 35  0  0  0  0  0  0  0  0999 V2000
   -1.3670   47.7110   67.7880 N   0  0  0  0  0  0  0  0  0  0  0  0
    3.8570   47.2420   74.0630 N   0  0  0  0  0  0  0  0  0  0  0  0
    3.5740   47.0470   72.7780 C   0  0  0  0  0  0  0  0  0  0  0  0
    4.4470   46.6760   71.8490 N   0  0  0  0  0  0  0  0  0  0  0  0
    3.6560   46.6210   70.7680 N   0  0  0  0  0  0  0  0  0  0  0  0
    2.3570   46.9510   71.0630 C   0  0  0  0  0  0  0  0  0  0  0  0
    1.3600   46.9480   70.1390 N   0  0  0  0  0  0  0  0  0  0  0  0
    1.5900   47.0880   68.7050 C   0  0  0  0  0  2  0  0  0  0  0  0
    1.0490   48.4300   68.2100 C   0  0  0  0  0  2  0  0  0  0  0  0
   -0.4530   48.6270   68.5470 C   0  0  0  0  0  3  0  0  0  0  0  0
   -0.5320   48.5090   70.0910 C   0  0  0  0  0  2  0  0  0  0  0  0
   -0.0230   47.1530   70.5800 C   0  0  0  0  0  2  0  0  0  0  0  0
    2.2910   47.1930   72.3520 N   0  0  0  0  0  0  0  0  0  0  0  0
    4.7190   46.8380   74.4030 H   0  0  0  0  0  0  0  0  0  0  0  0
    3.0820   47.2050   74.7110 H   0  0  0  0  0  0  0  0  0  0  0  0
    4.0480   46.3280   69.8820 H   0  0  0  0  0  0  0  0  0  0  0  0
   -2.6440   47.4530   68.5040 C   0  0  0  0  0  2  0  0  0  0  0  0
   -2.9190   45.9760   68.8890 C   0  0  0  0  0  2  0  0  0  0  0  0
   -4.3580   45.5640   68.6320 C   0  0  0  0  0  0  0  0  0  0  0  0
   -5.0300   46.0020   67.4810 C   0  0  0  0  0  3  0  0  0  0  0  0
   -6.3670   45.6520   67.2580 C   0  0  0  0  0  3  0  0  0  0  0  0
   -7.0350   44.8580   68.1870 C   0  0  0  0  0  0  0  0  0  0  0  0
   -8.6860   44.4500   67.9330 Cl  0  0  0  0  0  0  0  0  0  0  0  0
   -6.3740   44.3950   69.3220 C   0  0  0  0  0  3  0  0  0  0  0  0
   -5.0380   44.7410   69.5390 C   0  0  0  0  0  3  0  0  0  0  0  0
   -1.5970   48.1460   66.3860 C   0  0  0  0  0  2  0  0  0  0  0  0
   -2.8600   48.9420   66.1060 C   0  0  0  0  0  0  0  0  0  0  0  0
   -3.0170   50.2420   66.6090 C   0  0  0  0  0  3  0  0  0  0  0  0
   -4.1820   50.9710   66.3680 C   0  0  0  0  0  3  0  0  0  0  0  0
   -5.2090   50.4150   65.6100 C   0  0  0  0  0  3  0  0  0  0  0  0
   -5.0660   49.1310   65.0920 C   0  0  0  0  0  3  0  0  0  0  0  0
   -3.9000   48.4050   65.3330 C   0  0  0  0  0  3  0  0  0  0  0  0
  1 17  1  0  0  0  0
  1 10  1  0  0  0  0
  2 14  1  0  0  0  0
  2 15  1  0  0  0  0
  3  2  1  0  0  0  0
  4  3  2  0  0  0  0
  5  6  1  0  0  0  0
  5  4  1  0  0  0  0
  6 13  2  0  0  0  0
  7 12  1  0  0  0  0
  7  6  1  0  0  0  0
  8  7  1  0  0  0  0
  9 10  1  0  0  0  0
  9  8  1  0  0  0  0
 10 11  1  0  0  0  0
 11 12  1  0  0  0  0
 13  3  1  0  0  0  0
 16  5  1  0  0  0  0
 17 18  1  0  0  0  0
 19 18  1  0  0  0  0
 19 25  1  0  0  0  0
 20 19  2  0  0  0  0
 21 20  1  0  0  0  0
 21 22  2  0  0  0  0
 22 24  1  0  0  0  0
 23 22  1  0  0  0  0
 24 25  2  0  0  0  0
 26  1  1  0  0  0  0
 27 26  1  0  0  0  0
 27 28  1  0  0  0  0
 29 28  2  0  0  0  0
 30 29  1  0  0  0  0
 31 32  1  0  0  0  0
 31 30  2  0  0  0  0
 32 27  2  0  0  0  0
M  END
>  <MODEL>
6

>  <REMARK>
 VINA RESULT:      -9.5      2.042      3.176
  Name = CHEMBL4077482-5.4
  6 active torsions:
  status: ('A' for Active; 'I' for Inactive)
    1  A    between atoms: C_9  and  N_10
    2  A    between atoms: N_10  and  C_11
    3  A    between atoms: N_10  and  C_20
    4  A    between atoms: C_11  and  C_12
    5  A    between atoms: C_12  and  C_13
    6  A    between atoms: C_20  and  C_21
                            x       y       z     vdW  Elec       q    Type
                         _______ _______ _______ _____ _____    ______ ____

>  <TORSDO>
F 6

>  <rfscore_v2>
7.736222544566541

>  <vina_affinity>
-9.191883738075571

>  <vina_gauss1>
106.87663307064945

>  <vina_gauss2>
1447.545408723227

>  <vina_repulsion>
3.161684231168305

>  <vina_hydrophobic>
59.647494235688725

>  <vina_hydrogen>
2.906780562728838

>  <vina_intra_gauss1>
36.3567484737753

>  <vina_intra_gauss2>
250.20018303950542

>  <vina_intra_repulsion>
1.3857171183237484

>  <vina_intra_hydrophobic>
32.530314897874504

>  <vina_intra_hydrogen>
0.0

>  <vina_num_rotors>
6.0

>  <rfscore_v3>
7.266226151515158

>  <PLEClinear_p5_l1_s65536>
4.399900024929201

>  <nnscore>
7.095645807147571

$$$$
CHEMBL4077482-5.4
 OpenBabel12202021073D

 32 35  0  0  0  0  0  0  0  0999 V2000
   -1.1790   49.6990   65.5280 N   0  0  0  0  0  0  0  0  0  0  0  0
   -9.2120   48.1700   65.3950 N   0  0  0  0  0  0  0  0  0  0  0  0
   -8.0640   48.2630   66.0610 C   0  0  0  0  0  0  0  0  0  0  0  0
   -7.9350   48.1910   67.3810 N   0  0  0  0  0  0  0  0  0  0  0  0
   -6.6090   48.3310   67.5130 N   0  0  0  0  0  0  0  0  0  0  0  0
   -5.9840   48.4800   66.3000 C   0  0  0  0  0  0  0  0  0  0  0  0
   -4.6380   48.6170   66.1690 N   0  0  0  0  0  0  0  0  0  0  0  0
   -3.7700   49.1090   67.2340 C   0  0  0  0  0  2  0  0  0  0  0  0
   -3.2090   50.4830   66.8680 C   0  0  0  0  0  2  0  0  0  0  0  0
   -2.4600   50.4780   65.5080 C   0  0  0  0  0  3  0  0  0  0  0  0
   -3.5130   49.9940   64.4780 C   0  0  0  0  0  2  0  0  0  0  0  0
   -4.0460   48.6040   64.8280 C   0  0  0  0  0  2  0  0  0  0  0  0
   -6.9040   48.4050   65.3660 N   0  0  0  0  0  0  0  0  0  0  0  0
   -9.9930   47.7660   65.8940 H   0  0  0  0  0  0  0  0  0  0  0  0
   -9.1530   47.9210   64.4170 H   0  0  0  0  0  0  0  0  0  0  0  0
   -6.1960   48.2870   68.4350 H   0  0  0  0  0  0  0  0  0  0  0  0
   -0.5680   49.5640   64.1800 C   0  0  0  0  0  2  0  0  0  0  0  0
    0.8200   50.2320   63.9940 C   0  0  0  0  0  2  0  0  0  0  0  0
    1.8730   49.2590   63.4980 C   0  0  0  0  0  0  0  0  0  0  0  0
    2.7640   49.6300   62.4800 C   0  0  0  0  0  3  0  0  0  0  0  0
    3.7150   48.7220   61.9970 C   0  0  0  0  0  3  0  0  0  0  0  0
    3.7790   47.4400   62.5360 C   0  0  0  0  0  0  0  0  0  0  0  0
    4.9250   46.3110   61.9260 Cl  0  0  0  0  0  0  0  0  0  0  0  0
    2.9180   47.0640   63.5650 C   0  0  0  0  0  3  0  0  0  0  0  0
    1.9740   47.9730   64.0480 C   0  0  0  0  0  3  0  0  0  0  0  0
   -0.2040   50.2040   66.5290 C   0  0  0  0  0  2  0  0  0  0  0  0
    0.2070   49.2510   67.6380 C   0  0  0  0  0  0  0  0  0  0  0  0
   -0.3980   49.3140   68.9010 C   0  0  0  0  0  3  0  0  0  0  0  0
   -0.0130   48.4510   69.9290 C   0  0  0  0  0  3  0  0  0  0  0  0
    0.9810   47.5010   69.7060 C   0  0  0  0  0  3  0  0  0  0  0  0
    1.5840   47.4140   68.4550 C   0  0  0  0  0  3  0  0  0  0  0  0
    1.1960   48.2770   67.4300 C   0  0  0  0  0  3  0  0  0  0  0  0
  1 26  1  0  0  0  0
  2 14  1  0  0  0  0
  2  3  1  0  0  0  0
  3  4  2  0  0  0  0
  4  5  1  0  0  0  0
  5 16  1  0  0  0  0
  6  5  1  0  0  0  0
  7  6  1  0  0  0  0
  7  8  1  0  0  0  0
  9  8  1  0  0  0  0
 10  1  1  0  0  0  0
 10  9  1  0  0  0  0
 11 12  1  0  0  0  0
 11 10  1  0  0  0  0
 12  7  1  0  0  0  0
 13  3  1  0  0  0  0
 13  6  2  0  0  0  0
 15  2  1  0  0  0  0
 17  1  1  0  0  0  0
 18 17  1  0  0  0  0
 19 18  1  0  0  0  0
 19 25  1  0  0  0  0
 20 19  2  0  0  0  0
 21 20  1  0  0  0  0
 21 22  2  0  0  0  0
 22 24  1  0  0  0  0
 23 22  1  0  0  0  0
 24 25  2  0  0  0  0
 26 27  1  0  0  0  0
 27 28  1  0  0  0  0
 28 29  2  0  0  0  0
 30 29  1  0  0  0  0
 31 30  2  0  0  0  0
 32 27  2  0  0  0  0
 32 31  1  0  0  0  0
M  END
>  <MODEL>
7

>  <REMARK>
 VINA RESULT:      -9.1      4.894      8.675
  Name = CHEMBL4077482-5.4
  6 active torsions:
  status: ('A' for Active; 'I' for Inactive)
    1  A    between atoms: C_9  and  N_10
    2  A    between atoms: N_10  and  C_11
    3  A    between atoms: N_10  and  C_20
    4  A    between atoms: C_11  and  C_12
    5  A    between atoms: C_12  and  C_13
    6  A    between atoms: C_20  and  C_21
                            x       y       z     vdW  Elec       q    Type
                         _______ _______ _______ _____ _____    ______ ____

>  <TORSDO>
F 6

>  <rfscore_v2>
6.9354280621045605

>  <vina_affinity>
-8.365493826360455

>  <vina_gauss1>
68.37658781474632

>  <vina_gauss2>
1330.711966057932

>  <vina_repulsion>
0.548941444269351

>  <vina_hydrophobic>
70.14851001525159

>  <vina_hydrogen>
0.0

>  <vina_intra_gauss1>
40.82931900163864

>  <vina_intra_gauss2>
254.15832967959093

>  <vina_intra_repulsion>
0.29267756269745426

>  <vina_intra_hydrophobic>
26.095201232527238

>  <vina_intra_hydrogen>
0.0

>  <vina_num_rotors>
6.0

>  <rfscore_v3>
6.492923227161728

>  <PLEClinear_p5_l1_s65536>
2.5465114404325955

>  <nnscore>
6.7617132014383445

$$$$
CHEMBL4077482-5.4
 OpenBabel12202021073D

 32 35  0  0  0  0  0  0  0  0999 V2000
   -1.9600   49.2010   66.7060 N   0  0  0  0  0  0  0  0  0  0  0  0
    3.9470   50.1600   61.1310 N   0  0  0  0  0  0  0  0  0  0  0  0
    3.3020   49.4000   62.0130 C   0  0  0  0  0  0  0  0  0  0  0  0
    3.4850   48.0960   62.1790 N   0  0  0  0  0  0  0  0  0  0  0  0
    2.6160   47.8430   63.1680 N   0  0  0  0  0  0  0  0  0  0  0  0
    1.9450   48.9740   63.5650 C   0  0  0  0  0  0  0  0  0  0  0  0
    1.0270   48.9800   64.5670 N   0  0  0  0  0  0  0  0  0  0  0  0
    0.2890   47.7950   64.9920 C   0  0  0  0  0  2  0  0  0  0  0  0
   -1.1890   47.9320   64.6260 C   0  0  0  0  0  2  0  0  0  0  0  0
   -1.8310   49.2170   65.2110 C   0  0  0  0  0  3  0  0  0  0  0  0
   -0.9860   50.3820   64.6330 C   0  0  0  0  0  2  0  0  0  0  0  0
    0.4850   50.2610   65.0300 C   0  0  0  0  0  2  0  0  0  0  0  0
    2.4020   49.9780   62.8520 N   0  0  0  0  0  0  0  0  0  0  0  0
    4.8030   49.7820   60.7480 H   0  0  0  0  0  0  0  0  0  0  0  0
    3.9610   51.1540   61.3100 H   0  0  0  0  0  0  0  0  0  0  0  0
    2.5500   46.9060   63.5410 H   0  0  0  0  0  0  0  0  0  0  0  0
   -2.2040   47.8380   67.2450 C   0  0  0  0  0  2  0  0  0  0  0  0
   -3.6160   47.2490   66.9880 C   0  0  0  0  0  2  0  0  0  0  0  0
   -4.0340   46.2500   68.0520 C   0  0  0  0  0  0  0  0  0  0  0  0
   -3.1200   45.8200   69.0250 C   0  0  0  0  0  3  0  0  0  0  0  0
   -3.4930   44.8740   69.9870 C   0  0  0  0  0  3  0  0  0  0  0  0
   -4.7860   44.3570   69.9790 C   0  0  0  0  0  0  0  0  0  0  0  0
   -5.2410   43.1710   71.1390 Cl  0  0  0  0  0  0  0  0  0  0  0  0
   -5.7130   44.7920   69.0350 C   0  0  0  0  0  3  0  0  0  0  0  0
   -5.3400   45.7410   68.0800 C   0  0  0  0  0  3  0  0  0  0  0  0
   -0.8310   49.8750   67.3970 C   0  0  0  0  0  2  0  0  0  0  0  0
   -0.2680   49.1920   68.6310 C   0  0  0  0  0  0  0  0  0  0  0  0
   -0.8300   49.4150   69.8970 C   0  0  0  0  0  3  0  0  0  0  0  0
   -0.3060   48.8020   71.0360 C   0  0  0  0  0  3  0  0  0  0  0  0
    0.7870   47.9470   70.9270 C   0  0  0  0  0  3  0  0  0  0  0  0
    1.3510   47.7030   69.6790 C   0  0  0  0  0  3  0  0  0  0  0  0
    0.8240   48.3160   68.5410 C   0  0  0  0  0  3  0  0  0  0  0  0
  1 17  1  0  0  0  0
  1 26  1  0  0  0  0
  2 15  1  0  0  0  0
  2  3  1  0  0  0  0
  3  4  2  0  0  0  0
  3 13  1  0  0  0  0
  4  5  1  0  0  0  0
  5 16  1  0  0  0  0
  5  6  1  0  0  0  0
  6  7  1  0  0  0  0
  7  8  1  0  0  0  0
  7 12  1  0  0  0  0
  9  8  1  0  0  0  0
  9 10  1  0  0  0  0
 10  1  1  0  0  0  0
 11 12  1  0  0  0  0
 11 10  1  0  0  0  0
 13  6  2  0  0  0  0
 14  2  1  0  0  0  0
 18 17  1  0  0  0  0
 18 19  1  0  0  0  0
 19 25  2  0  0  0  0
 19 20  1  0  0  0  0
 20 21  2  0  0  0  0
 22 21  1  0  0  0  0
 22 23  1  0  0  0  0
 24 22  2  0  0  0  0
 25 24  1  0  0  0  0
 26 27  1  0  0  0  0
 27 28  1  0  0  0  0
 28 29  2  0  0  0  0
 30 29  1  0  0  0  0
 31 30  2  0  0  0  0
 32 27  2  0  0  0  0
 32 31  1  0  0  0  0
M  END
>  <MODEL>
8

>  <REMARK>
 VINA RESULT:      -9.0      3.251      5.742
  Name = CHEMBL4077482-5.4
  6 active torsions:
  status: ('A' for Active; 'I' for Inactive)
    1  A    between atoms: C_9  and  N_10
    2  A    between atoms: N_10  and  C_11
    3  A    between atoms: N_10  and  C_20
    4  A    between atoms: C_11  and  C_12
    5  A    between atoms: C_12  and  C_13
    6  A    between atoms: C_20  and  C_21
                            x       y       z     vdW  Elec       q    Type
                         _______ _______ _______ _____ _____    ______ ____

>  <TORSDO>
F 6

>  <rfscore_v2>
7.189465491674988

>  <vina_affinity>
-9.520136351426707

>  <vina_gauss1>
112.1799944025955

>  <vina_gauss2>
1368.626642902118

>  <vina_repulsion>
0.8985721805842044

>  <vina_hydrophobic>
72.95679670543834

>  <vina_hydrogen>
0.0

>  <vina_intra_gauss1>
35.866186204577204

>  <vina_intra_gauss2>
273.8214436519637

>  <vina_intra_repulsion>
4.199020100983042

>  <vina_intra_hydrophobic>
27.133465323628556

>  <vina_intra_hydrogen>
0.0

>  <vina_num_rotors>
6.0

>  <rfscore_v3>
6.696305472749465

>  <PLEClinear_p5_l1_s65536>
2.919500510784142

>  <nnscore>
6.678256034984011

$$$$
CHEMBL4077482-5.4
 OpenBabel12202021073D

 32 35  0  0  0  0  0  0  0  0999 V2000
   -2.4600   50.4240   66.1820 N   0  0  0  0  0  0  0  0  0  0  0  0
    2.8820   46.3370   70.8350 N   0  0  0  0  0  0  0  0  0  0  0  0
    1.8890   47.2150   70.7140 C   0  0  0  0  0  0  0  0  0  0  0  0
    1.2250   47.7650   71.7230 N   0  0  0  0  0  0  0  0  0  0  0  0
    0.3670   48.5540   71.0610 N   0  0  0  0  0  0  0  0  0  0  0  0
    0.5300   48.4630   69.7010 C   0  0  0  0  0  0  0  0  0  0  0  0
   -0.2070   49.1830   68.8140 N   0  0  0  0  0  0  0  0  0  0  0  0
   -1.5260   49.7270   69.1170 C   0  0  0  0  0  2  0  0  0  0  0  0
   -2.5980   49.0030   68.3020 C   0  0  0  0  0  2  0  0  0  0  0  0
   -2.3210   49.0540   66.7760 C   0  0  0  0  0  3  0  0  0  0  0  0
   -0.9270   48.3970   66.6040 C   0  0  0  0  0  2  0  0  0  0  0  0
    0.1490   49.1440   67.3930 C   0  0  0  0  0  2  0  0  0  0  0  0
    1.5230   47.6340   69.4740 N   0  0  0  0  0  0  0  0  0  0  0  0
    3.3290   46.2820   71.7400 H   0  0  0  0  0  0  0  0  0  0  0  0
    3.5040   46.2400   70.0440 H   0  0  0  0  0  0  0  0  0  0  0  0
   -0.2700   49.1400   71.5840 H   0  0  0  0  0  0  0  0  0  0  0  0
   -2.0920   50.4650   64.7430 C   0  0  0  0  0  2  0  0  0  0  0  0
   -1.2470   51.6860   64.2930 C   0  0  0  0  0  2  0  0  0  0  0  0
   -0.0250   51.2850   63.4880 C   0  0  0  0  0  0  0  0  0  0  0  0
    0.7300   50.1590   63.8500 C   0  0  0  0  0  3  0  0  0  0  0  0
    1.8770   49.8050   63.1280 C   0  0  0  0  0  3  0  0  0  0  0  0
    2.2700   50.5780   62.0390 C   0  0  0  0  0  0  0  0  0  0  0  0
    3.6950   50.1660   61.1680 Cl  0  0  0  0  0  0  0  0  0  0  0  0
    1.5180   51.6840   61.6510 C   0  0  0  0  0  3  0  0  0  0  0  0
    0.3710   52.0310   62.3690 C   0  0  0  0  0  3  0  0  0  0  0  0
   -3.7910   51.0360   66.4300 C   0  0  0  0  0  2  0  0  0  0  0  0
   -4.9220   50.6350   65.4990 C   0  0  0  0  0  0  0  0  0  0  0  0
   -5.3660   51.5050   64.4920 C   0  0  0  0  0  3  0  0  0  0  0  0
   -6.4160   51.1480   63.6440 C   0  0  0  0  0  3  0  0  0  0  0  0
   -7.0340   49.9070   63.7830 C   0  0  0  0  0  3  0  0  0  0  0  0
   -6.5980   49.0260   64.7680 C   0  0  0  0  0  3  0  0  0  0  0  0
   -5.5480   49.3850   65.6130 C   0  0  0  0  0  3  0  0  0  0  0  0
  1 26  1  0  0  0  0
  1 10  1  0  0  0  0
  2 14  1  0  0  0  0
  3  2  1  0  0  0  0
  3  4  2  0  0  0  0
  5 16  1  0  0  0  0
  5  4  1  0  0  0  0
  6  5  1  0  0  0  0
  7  8  1  0  0  0  0
  7  6  1  0  0  0  0
  9  8  1  0  0  0  0
 10  9  1  0  0  0  0
 11 10  1  0  0  0  0
 11 12  1  0  0  0  0
 12  7  1  0  0  0  0
 13  6  2  0  0  0  0
 13  3  1  0  0  0  0
 15  2  1  0  0  0  0
 17  1  1  0  0  0  0
 18 17  1  0  0  0  0
 19 20  1  0  0  0  0
 19 18  1  0  0  0  0
 21 20  2  0  0  0  0
 22 21  1  0  0  0  0
 23 22  1  0  0  0  0
 24 22  2  0  0  0  0
 24 25  1  0  0  0  0
 25 19  2  0  0  0  0
 27 32  1  0  0  0  0
 27 26  1  0  0  0  0
 28 27  2  0  0  0  0
 29 30  2  0  0  0  0
 29 28  1  0  0  0  0
 30 31  1  0  0  0  0
 31 32  2  0  0  0  0
M  END
>  <MODEL>
9

>  <REMARK>
 VINA RESULT:      -8.8      3.983      7.089
  Name = CHEMBL4077482-5.4
  6 active torsions:
  status: ('A' for Active; 'I' for Inactive)
    1  A    between atoms: C_9  and  N_10
    2  A    between atoms: N_10  and  C_11
    3  A    between atoms: N_10  and  C_20
    4  A    between atoms: C_11  and  C_12
    5  A    between atoms: C_12  and  C_13
    6  A    between atoms: C_20  and  C_21
                            x       y       z     vdW  Elec       q    Type
                         _______ _______ _______ _____ _____    ______ ____

>  <TORSDO>
F 6

>  <rfscore_v2>
7.324406491341994

>  <vina_affinity>
-8.280411403779135

>  <vina_gauss1>
89.78946811663761

>  <vina_gauss2>
1314.2091820892488

>  <vina_repulsion>
1.2672466855220934

>  <vina_hydrophobic>
36.218629533334926

>  <vina_hydrogen>
1.7073674296274153

>  <vina_intra_gauss1>
36.46778056614859

>  <vina_intra_gauss2>
249.08402574764895

>  <vina_intra_repulsion>
0.5807430272771683

>  <vina_intra_hydrophobic>
19.820859309585707

>  <vina_intra_hydrogen>
0.0

>  <vina_num_rotors>
6.0

>  <rfscore_v3>
7.220988133477642

>  <PLEClinear_p5_l1_s65536>
5.172408197763783

>  <nnscore>
6.787153779799655

$$$$
