CHEMBL4082060-8.7
 OpenBabel12202021053D

 32 35  0  0  0  0  0  0  0  0999 V2000
   -0.8170   48.0560   68.2300 N   0  0  0  0  0  0  0  0  0  0  0  0
    4.3340   48.4130   61.7200 N   0  0  0  0  0  0  0  0  0  0  0  0
    3.3030   48.9430   62.3730 C   0  0  0  0  0  0  0  0  0  0  0  0
    2.6830   50.0780   62.0860 N   0  0  0  0  0  0  0  0  0  0  0  0
    1.7640   50.1220   63.0660 N   0  0  0  0  0  0  0  0  0  0  0  0
    1.8670   49.0400   63.8970 C   0  0  0  0  0  0  0  0  0  0  0  0
    1.1050   48.8410   64.9940 N   0  0  0  0  0  0  0  0  0  0  0  0
    0.3280   49.9020   65.6220 C   0  0  0  0  0  2  0  0  0  0  0  0
    0.5560   49.9460   67.1300 C   0  0  0  0  0  2  0  0  0  0  0  0
    0.5340   48.5770   67.8490 C   0  0  0  0  0  3  0  0  0  0  0  0
    1.4860   47.6340   67.0910 C   0  0  0  0  0  2  0  0  0  0  0  0
    1.1730   47.5190   65.6100 C   0  0  0  0  0  2  0  0  0  0  0  0
    2.8150   48.2590   63.4330 N   0  0  0  0  0  0  0  0  0  0  0  0
    4.4960   48.7490   60.7850 H   0  0  0  0  0  0  0  0  0  0  0  0
    4.4940   47.4260   61.8590 H   0  0  0  0  0  0  0  0  0  0  0  0
    1.1060   50.8870   63.1020 H   0  0  0  0  0  0  0  0  0  0  0  0
   -0.8520   46.6030   68.4960 C   0  0  0  0  0  2  0  0  0  0  0  0
   -1.4310   46.0750   69.8240 C   0  0  0  0  0  2  0  0  0  0  0  0
   -2.8170   45.5050   69.5660 C   0  0  0  0  0  0  0  0  0  0  0  0
   -3.6110   46.0080   68.5220 C   0  0  0  0  0  3  0  0  0  0  0  0
   -4.9060   45.5240   68.3170 C   0  0  0  0  0  3  0  0  0  0  0  0
   -5.4170   44.5410   69.1620 C   0  0  0  0  0  0  0  0  0  0  0  0
   -7.0060   43.9330   68.9040 Cl  0  0  0  0  0  0  0  0  0  0  0  0
   -4.6500   44.0490   70.2160 C   0  0  0  0  0  3  0  0  0  0  0  0
   -3.3550   44.5330   70.4200 C   0  0  0  0  0  3  0  0  0  0  0  0
   -1.3820   48.7720   69.3950 C   0  0  0  0  0  2  0  0  0  0  0  0
   -2.5310   49.7750   69.1510 C   0  0  0  0  0  3  0  0  0  0  0  0
   -3.1260   49.4630   67.7610 C   0  0  0  0  0  2  0  0  0  0  0  0
   -4.1570   50.4870   67.3120 C   0  0  0  0  0  2  0  0  0  0  0  0
   -3.5720   51.8910   67.3460 C   0  0  0  0  0  2  0  0  0  0  0  0
   -3.0820   52.2370   68.7470 C   0  0  0  0  0  2  0  0  0  0  0  0
   -2.0460   51.2320   69.2480 C   0  0  0  0  0  2  0  0  0  0  0  0
  1 17  1  0  0  0  0
  1 26  1  0  0  0  0
  2 15  1  0  0  0  0
  2  3  1  0  0  0  0
  3 13  1  0  0  0  0
  4  3  2  0  0  0  0
  4  5  1  0  0  0  0
  5 16  1  0  0  0  0
  5  6  1  0  0  0  0
  6  7  1  0  0  0  0
  7 12  1  0  0  0  0
  7  8  1  0  0  0  0
  8  9  1  0  0  0  0
  9 10  1  0  0  0  0
 10  1  1  0  0  0  0
 11 10  1  0  0  0  0
 12 11  1  0  0  0  0
 13  6  2  0  0  0  0
 14  2  1  0  0  0  0
 17 18  1  0  0  0  0
 19 18  1  0  0  0  0
 19 25  1  0  0  0  0
 20 19  2  0  0  0  0
 21 20  1  0  0  0  0
 21 22  2  0  0  0  0
 22 24  1  0  0  0  0
 23 22  1  0  0  0  0
 24 25  2  0  0  0  0
 27 32  1  0  0  0  0
 27 26  1  0  0  0  0
 28 27  1  0  0  0  0
 29 30  1  0  0  0  0
 29 28  1  0  0  0  0
 30 31  1  0  0  0  0
 31 32  1  0  0  0  0
M  END
>  <MODEL>
1

>  <REMARK>
 VINA RESULT:      -9.3      0.000      0.000
  Name = CHEMBL4082060-8.7
  6 active torsions:
  status: ('A' for Active; 'I' for Inactive)
    1  A    between atoms: C_9  and  N_10
    2  A    between atoms: N_10  and  C_11
    3  A    between atoms: N_10  and  C_20
    4  A    between atoms: C_11  and  C_12
    5  A    between atoms: C_12  and  C_13
    6  A    between atoms: C_20  and  C_21
                            x       y       z     vdW  Elec       q    Type
                         _______ _______ _______ _____ _____    ______ ____

>  <TORSDO>
F 6

>  <rfscore_v2>
7.1885961252081305

>  <vina_affinity>
-9.277689998000804

>  <vina_gauss1>
109.33464619852994

>  <vina_gauss2>
1414.2888593939479

>  <vina_repulsion>
1.2219489960159542

>  <vina_hydrophobic>
67.53710612000147

>  <vina_hydrogen>
0.0

>  <vina_intra_gauss1>
41.11715584429041

>  <vina_intra_gauss2>
257.33352611247483

>  <vina_intra_repulsion>
0.5225313001556413

>  <vina_intra_hydrophobic>
31.11676379673886

>  <vina_intra_hydrogen>
0.0

>  <vina_num_rotors>
6.0

>  <rfscore_v3>
6.751658678377176

>  <PLEClinear_p5_l1_s65536>
4.7524366059955385

>  <nnscore>
6.369843367505498

$$$$
CHEMBL4082060-8.7
 OpenBabel12202021053D

 32 35  0  0  0  0  0  0  0  0999 V2000
   -0.6150   48.4860   66.0370 N   0  0  0  0  0  0  0  0  0  0  0  0
   -8.4340   50.4790   64.0530 N   0  0  0  0  0  0  0  0  0  0  0  0
   -7.5490   50.1980   65.0060 C   0  0  0  0  0  0  0  0  0  0  0  0
   -7.7480   50.2550   66.3140 N   0  0  0  0  0  0  0  0  0  0  0  0
   -6.5360   49.8990   66.7730 N   0  0  0  0  0  0  0  0  0  0  0  0
   -5.6650   49.6550   65.7470 C   0  0  0  0  0  0  0  0  0  0  0  0
   -4.3660   49.3240   65.9080 N   0  0  0  0  0  0  0  0  0  0  0  0
   -3.6460   49.5210   67.1600 C   0  0  0  0  0  2  0  0  0  0  0  0
   -2.3080   50.2180   66.9320 C   0  0  0  0  0  2  0  0  0  0  0  0
   -1.4690   49.6830   65.7500 C   0  0  0  0  0  3  0  0  0  0  0  0
   -2.3800   49.6410   64.5090 C   0  0  0  0  0  2  0  0  0  0  0  0
   -3.6570   48.8480   64.7220 C   0  0  0  0  0  2  0  0  0  0  0  0
   -6.3170   49.7970   64.6160 N   0  0  0  0  0  0  0  0  0  0  0  0
   -9.4040   50.4800   64.3250 H   0  0  0  0  0  0  0  0  0  0  0  0
   -8.2420   50.1030   63.1370 H   0  0  0  0  0  0  0  0  0  0  0  0
   -6.3780   49.8290   67.7680 H   0  0  0  0  0  0  0  0  0  0  0  0
    0.0360   47.9070   64.8440 C   0  0  0  0  0  2  0  0  0  0  0  0
    1.5680   47.7380   64.8060 C   0  0  0  0  0  2  0  0  0  0  0  0
    2.1370   48.6420   63.7240 C   0  0  0  0  0  0  0  0  0  0  0  0
    1.4890   49.8420   63.3840 C   0  0  0  0  0  3  0  0  0  0  0  0
    1.9810   50.6480   62.3540 C   0  0  0  0  0  3  0  0  0  0  0  0
    3.1160   50.2530   61.6500 C   0  0  0  0  0  0  0  0  0  0  0  0
    3.7300   51.2500   60.3890 Cl  0  0  0  0  0  0  0  0  0  0  0  0
    3.7560   49.0550   61.9590 C   0  0  0  0  0  3  0  0  0  0  0  0
    3.2650   48.2490   62.9910 C   0  0  0  0  0  3  0  0  0  0  0  0
    0.4170   48.7700   67.0570 C   0  0  0  0  0  2  0  0  0  0  0  0
    0.4070   47.9380   68.3590 C   0  0  0  0  0  3  0  0  0  0  0  0
   -0.1100   48.8560   69.4880 C   0  0  0  0  0  2  0  0  0  0  0  0
   -0.0070   48.2200   70.8660 C   0  0  0  0  0  2  0  0  0  0  0  0
    1.4190   47.7700   71.1470 C   0  0  0  0  0  2  0  0  0  0  0  0
    1.8890   46.7800   70.0890 C   0  0  0  0  0  2  0  0  0  0  0  0
    1.8000   47.3700   68.6820 C   0  0  0  0  0  2  0  0  0  0  0  0
  1 26  1  0  0  0  0
  2 14  1  0  0  0  0
  2  3  1  0  0  0  0
  3  4  2  0  0  0  0
  4  5  1  0  0  0  0
  5 16  1  0  0  0  0
  6  7  1  0  0  0  0
  6  5  1  0  0  0  0
  7  8  1  0  0  0  0
  9  8  1  0  0  0  0
 10  1  1  0  0  0  0
 10  9  1  0  0  0  0
 11 12  1  0  0  0  0
 11 10  1  0  0  0  0
 12  7  1  0  0  0  0
 13  3  1  0  0  0  0
 13  6  2  0  0  0  0
 15  2  1  0  0  0  0
 17  1  1  0  0  0  0
 18 17  1  0  0  0  0
 19 18  1  0  0  0  0
 20 19  1  0  0  0  0
 21 20  2  0  0  0  0
 22 24  2  0  0  0  0
 22 21  1  0  0  0  0
 23 22  1  0  0  0  0
 24 25  1  0  0  0  0
 25 19  2  0  0  0  0
 26 27  1  0  0  0  0
 27 32  1  0  0  0  0
 27 28  1  0  0  0  0
 28 29  1  0  0  0  0
 29 30  1  0  0  0  0
 31 30  1  0  0  0  0
 32 31  1  0  0  0  0
M  END
>  <MODEL>
2

>  <REMARK>
 VINA RESULT:      -9.2      4.465      8.240
  Name = CHEMBL4082060-8.7
  6 active torsions:
  status: ('A' for Active; 'I' for Inactive)
    1  A    between atoms: C_9  and  N_10
    2  A    between atoms: N_10  and  C_11
    3  A    between atoms: N_10  and  C_20
    4  A    between atoms: C_11  and  C_12
    5  A    between atoms: C_12  and  C_13
    6  A    between atoms: C_20  and  C_21
                            x       y       z     vdW  Elec       q    Type
                         _______ _______ _______ _____ _____    ______ ____

>  <TORSDO>
F 6

>  <rfscore_v2>
6.959267651848157

>  <vina_affinity>
-9.284366002049076

>  <vina_gauss1>
89.5216719535886

>  <vina_gauss2>
1316.692171922814

>  <vina_repulsion>
0.5851981824118433

>  <vina_hydrophobic>
77.43407480422265

>  <vina_hydrogen>
0.5719008308288919

>  <vina_intra_gauss1>
35.29719295479822

>  <vina_intra_gauss2>
245.23238525246524

>  <vina_intra_repulsion>
0.07046685075151543

>  <vina_intra_hydrophobic>
18.198233185192308

>  <vina_intra_hydrogen>
0.0

>  <vina_num_rotors>
6.0

>  <rfscore_v3>
6.63253063120213

>  <PLEClinear_p5_l1_s65536>
3.4890090954752027

>  <nnscore>
6.908710595172278

$$$$
CHEMBL4082060-8.7
 OpenBabel12202021053D

 32 35  0  0  0  0  0  0  0  0999 V2000
   -1.1910   49.4130   66.5540 N   0  0  0  0  0  0  0  0  0  0  0  0
    3.5260   50.7440   59.8440 N   0  0  0  0  0  0  0  0  0  0  0  0
    3.3790   50.1300   61.0150 C   0  0  0  0  0  0  0  0  0  0  0  0
    4.1880   49.2230   61.5420 N   0  0  0  0  0  0  0  0  0  0  0  0
    3.5480   48.9460   62.6900 N   0  0  0  0  0  0  0  0  0  0  0  0
    2.3950   49.6720   62.8080 C   0  0  0  0  0  0  0  0  0  0  0  0
    1.5250   49.5670   63.8360 N   0  0  0  0  0  0  0  0  0  0  0  0
    1.5220   48.4400   64.7600 C   0  0  0  0  0  2  0  0  0  0  0  0
    0.1180   47.8730   64.9460 C   0  0  0  0  0  2  0  0  0  0  0  0
   -1.0030   48.9180   65.1530 C   0  0  0  0  0  3  0  0  0  0  0  0
   -0.8850   49.9610   64.0260 C   0  0  0  0  0  2  0  0  0  0  0  0
    0.4910   50.5950   63.9300 C   0  0  0  0  0  2  0  0  0  0  0  0
    2.3050   50.4660   61.7660 N   0  0  0  0  0  0  0  0  0  0  0  0
    4.4470   50.7250   59.4380 H   0  0  0  0  0  0  0  0  0  0  0  0
    3.0170   51.6060   59.7210 H   0  0  0  0  0  0  0  0  0  0  0  0
    3.9470   48.2820   63.3380 H   0  0  0  0  0  0  0  0  0  0  0  0
   -2.2500   48.7100   67.3070 C   0  0  0  0  0  2  0  0  0  0  0  0
   -3.2070   47.7460   66.5780 C   0  0  0  0  0  2  0  0  0  0  0  0
   -3.6700   46.6780   67.5560 C   0  0  0  0  0  0  0  0  0  0  0  0
   -4.9720   46.1550   67.4760 C   0  0  0  0  0  3  0  0  0  0  0  0
   -5.4180   45.2120   68.4060 C   0  0  0  0  0  3  0  0  0  0  0  0
   -4.5680   44.7960   69.4290 C   0  0  0  0  0  0  0  0  0  0  0  0
   -5.1100   43.6280   70.5690 Cl  0  0  0  0  0  0  0  0  0  0  0  0
   -3.2830   45.3240   69.5360 C   0  0  0  0  0  3  0  0  0  0  0  0
   -2.8370   46.2650   68.6050 C   0  0  0  0  0  3  0  0  0  0  0  0
    0.0650   49.3660   67.3330 C   0  0  0  0  0  2  0  0  0  0  0  0
    0.2010   48.2960   68.4400 C   0  0  0  0  0  3  0  0  0  0  0  0
   -0.0750   48.9930   69.7900 C   0  0  0  0  0  2  0  0  0  0  0  0
    0.1960   48.0970   70.9880 C   0  0  0  0  0  2  0  0  0  0  0  0
    1.6150   47.5500   70.9430 C   0  0  0  0  0  2  0  0  0  0  0  0
    1.8500   46.7700   69.6560 C   0  0  0  0  0  2  0  0  0  0  0  0
    1.5860   47.6260   68.4190 C   0  0  0  0  0  2  0  0  0  0  0  0
  1 17  1  0  0  0  0
  1 26  1  0  0  0  0
  2  3  1  0  0  0  0
  3  4  2  0  0  0  0
  3 13  1  0  0  0  0
  4  5  1  0  0  0  0
  5  6  1  0  0  0  0
  5 16  1  0  0  0  0
  6  7  1  0  0  0  0
  7 12  1  0  0  0  0
  7  8  1  0  0  0  0
  8  9  1  0  0  0  0
  9 10  1  0  0  0  0
 10  1  1  0  0  0  0
 11 10  1  0  0  0  0
 12 11  1  0  0  0  0
 13  6  2  0  0  0  0
 14  2  1  0  0  0  0
 15  2  1  0  0  0  0
 18 17  1  0  0  0  0
 18 19  1  0  0  0  0
 19 25  1  0  0  0  0
 20 19  2  0  0  0  0
 20 21  1  0  0  0  0
 21 22  2  0  0  0  0
 22 24  1  0  0  0  0
 22 23  1  0  0  0  0
 25 24  2  0  0  0  0
 26 27  1  0  0  0  0
 27 28  1  0  0  0  0
 28 29  1  0  0  0  0
 30 29  1  0  0  0  0
 31 30  1  0  0  0  0
 32 27  1  0  0  0  0
 32 31  1  0  0  0  0
M  END
>  <MODEL>
3

>  <REMARK>
 VINA RESULT:      -9.1      1.767      3.498
  Name = CHEMBL4082060-8.7
  6 active torsions:
  status: ('A' for Active; 'I' for Inactive)
    1  A    between atoms: C_9  and  N_10
    2  A    between atoms: N_10  and  C_11
    3  A    between atoms: N_10  and  C_20
    4  A    between atoms: C_11  and  C_12
    5  A    between atoms: C_12  and  C_13
    6  A    between atoms: C_20  and  C_21
                            x       y       z     vdW  Elec       q    Type
                         _______ _______ _______ _____ _____    ______ ____

>  <TORSDO>
F 6

>  <rfscore_v2>
7.040887510101007

>  <vina_affinity>
-9.475112672546608

>  <vina_gauss1>
109.2517734939538

>  <vina_gauss2>
1336.3031355560342

>  <vina_repulsion>
0.6609171956851356

>  <vina_hydrophobic>
73.25812960490288

>  <vina_hydrogen>
0.0

>  <vina_intra_gauss1>
37.81237986997358

>  <vina_intra_gauss2>
260.7045269349427

>  <vina_intra_repulsion>
1.7280531138593862

>  <vina_intra_hydrophobic>
31.3252020432274

>  <vina_intra_hydrogen>
0.0

>  <vina_num_rotors>
6.0

>  <rfscore_v3>
6.695046321955815

>  <PLEClinear_p5_l1_s65536>
3.753079956675077

>  <nnscore>
6.834131070495526

$$$$
CHEMBL4082060-8.7
 OpenBabel12202021053D

 32 35  0  0  0  0  0  0  0  0999 V2000
   -2.3150   48.7980   67.9950 N   0  0  0  0  0  0  0  0  0  0  0  0
   -9.0950   50.6250   63.5530 N   0  0  0  0  0  0  0  0  0  0  0  0
   -8.5770   50.2760   64.7270 C   0  0  0  0  0  0  0  0  0  0  0  0
   -9.2240   50.1650   65.8780 N   0  0  0  0  0  0  0  0  0  0  0  0
   -8.2210   49.8170   66.7020 N   0  0  0  0  0  0  0  0  0  0  0  0
   -7.0290   49.7420   66.0360 C   0  0  0  0  0  0  0  0  0  0  0  0
   -5.8440   49.4580   66.6180 N   0  0  0  0  0  0  0  0  0  0  0  0
   -5.6260   49.5390   68.0560 C   0  0  0  0  0  2  0  0  0  0  0  0
   -4.3610   50.3230   68.3880 C   0  0  0  0  0  2  0  0  0  0  0  0
   -3.1170   49.9770   67.5380 C   0  0  0  0  0  3  0  0  0  0  0  0
   -3.5320   50.0390   66.0560 C   0  0  0  0  0  2  0  0  0  0  0  0
   -4.7270   49.1650   65.7230 C   0  0  0  0  0  2  0  0  0  0  0  0
   -7.2560   49.9860   64.7660 N   0  0  0  0  0  0  0  0  0  0  0  0
  -10.0940   50.5460   63.4600 H   0  0  0  0  0  0  0  0  0  0  0  0
   -8.5630   50.3730   62.7340 H   0  0  0  0  0  0  0  0  0  0  0  0
   -8.4150   49.6360   67.6770 H   0  0  0  0  0  0  0  0  0  0  0  0
   -2.8600   47.4920   67.5690 C   0  0  0  0  0  2  0  0  0  0  0  0
   -2.8930   46.3090   68.5570 C   0  0  0  0  0  2  0  0  0  0  0  0
   -4.2710   45.6690   68.5160 C   0  0  0  0  0  0  0  0  0  0  0  0
   -5.1710   45.9810   67.4820 C   0  0  0  0  0  3  0  0  0  0  0  0
   -6.4570   45.4350   67.4710 C   0  0  0  0  0  3  0  0  0  0  0  0
   -6.8540   44.5830   68.4990 C   0  0  0  0  0  0  0  0  0  0  0  0
   -8.4340   43.9000   68.4810 Cl  0  0  0  0  0  0  0  0  0  0  0  0
   -5.9830   44.2830   69.5430 C   0  0  0  0  0  3  0  0  0  0  0  0
   -4.6950   44.8280   69.5530 C   0  0  0  0  0  3  0  0  0  0  0  0
   -0.9010   48.8890   67.5710 C   0  0  0  0  0  2  0  0  0  0  0  0
    0.1960   48.7870   68.6530 C   0  0  0  0  0  3  0  0  0  0  0  0
    1.0370   47.5310   68.3390 C   0  0  0  0  0  2  0  0  0  0  0  0
    2.0500   47.2050   69.4260 C   0  0  0  0  0  2  0  0  0  0  0  0
    1.3660   47.0730   70.7780 C   0  0  0  0  0  2  0  0  0  0  0  0
    0.6250   48.3550   71.1350 C   0  0  0  0  0  2  0  0  0  0  0  0
   -0.4030   48.7300   70.0690 C   0  0  0  0  0  2  0  0  0  0  0  0
  2  3  1  0  0  0  0
  3 13  1  0  0  0  0
  3  4  2  0  0  0  0
  4  5  1  0  0  0  0
  5 16  1  0  0  0  0
  6  7  1  0  0  0  0
  6  5  1  0  0  0  0
  7  8  1  0  0  0  0
  8  9  1  0  0  0  0
 10  1  1  0  0  0  0
 10  9  1  0  0  0  0
 11 10  1  0  0  0  0
 12 11  1  0  0  0  0
 12  7  1  0  0  0  0
 13  6  2  0  0  0  0
 14  2  1  0  0  0  0
 15  2  1  0  0  0  0
 17  1  1  0  0  0  0
 17 18  1  0  0  0  0
 19 18  1  0  0  0  0
 19 25  1  0  0  0  0
 20 19  2  0  0  0  0
 21 20  1  0  0  0  0
 21 22  2  0  0  0  0
 22 24  1  0  0  0  0
 23 22  1  0  0  0  0
 24 25  2  0  0  0  0
 26  1  1  0  0  0  0
 26 27  1  0  0  0  0
 27 32  1  0  0  0  0
 28 27  1  0  0  0  0
 28 29  1  0  0  0  0
 29 30  1  0  0  0  0
 30 31  1  0  0  0  0
 32 31  1  0  0  0  0
M  END
>  <MODEL>
4

>  <REMARK>
 VINA RESULT:      -9.0      3.807      6.494
  Name = CHEMBL4082060-8.7
  6 active torsions:
  status: ('A' for Active; 'I' for Inactive)
    1  A    between atoms: C_9  and  N_10
    2  A    between atoms: N_10  and  C_11
    3  A    between atoms: N_10  and  C_20
    4  A    between atoms: C_11  and  C_12
    5  A    between atoms: C_12  and  C_13
    6  A    between atoms: C_20  and  C_21
                            x       y       z     vdW  Elec       q    Type
                         _______ _______ _______ _____ _____    ______ ____

>  <TORSDO>
F 6

>  <rfscore_v2>
7.137253231213232

>  <vina_affinity>
-9.319179597323606

>  <vina_gauss1>
88.75056933609474

>  <vina_gauss2>
1330.6452937315953

>  <vina_repulsion>
0.814893191343016

>  <vina_hydrophobic>
81.61118223261028

>  <vina_hydrogen>
0.6550586649534968

>  <vina_intra_gauss1>
40.74845870350206

>  <vina_intra_gauss2>
296.55772543372063

>  <vina_intra_repulsion>
1.2666376628851101

>  <vina_intra_hydrophobic>
21.766483554520008

>  <vina_intra_hydrogen>
0.0

>  <vina_num_rotors>
6.0

>  <rfscore_v3>
6.708833513708508

>  <PLEClinear_p5_l1_s65536>
1.5311008449348749

>  <nnscore>
6.962455287252415

$$$$
CHEMBL4082060-8.7
 OpenBabel12202021053D

 32 35  0  0  0  0  0  0  0  0999 V2000
   -1.2200   49.1070   66.5230 N   0  0  0  0  0  0  0  0  0  0  0  0
   -9.2240   51.0540   65.4350 N   0  0  0  0  0  0  0  0  0  0  0  0
   -8.3270   50.2130   65.9420 C   0  0  0  0  0  0  0  0  0  0  0  0
   -8.5710   49.1660   66.7180 N   0  0  0  0  0  0  0  0  0  0  0  0
   -7.3250   48.7150   66.9380 N   0  0  0  0  0  0  0  0  0  0  0  0
   -6.3930   49.4940   66.3100 C   0  0  0  0  0  0  0  0  0  0  0  0
   -5.0580   49.3070   66.3920 N   0  0  0  0  0  0  0  0  0  0  0  0
   -4.4340   48.4830   67.4190 C   0  0  0  0  0  2  0  0  0  0  0  0
   -3.2710   49.2090   68.0890 C   0  0  0  0  0  2  0  0  0  0  0  0
   -2.3020   49.9430   67.1340 C   0  0  0  0  0  3  0  0  0  0  0  0
   -3.1480   50.8280   66.1980 C   0  0  0  0  0  2  0  0  0  0  0  0
   -4.2300   50.0640   65.4560 C   0  0  0  0  0  2  0  0  0  0  0  0
   -7.0270   50.4230   65.6330 N   0  0  0  0  0  0  0  0  0  0  0  0
  -10.1790   50.7340   65.4110 H   0  0  0  0  0  0  0  0  0  0  0  0
   -8.9300   51.5980   64.6380 H   0  0  0  0  0  0  0  0  0  0  0  0
   -7.1850   47.8870   67.4970 H   0  0  0  0  0  0  0  0  0  0  0  0
   -0.0160   49.8680   66.1300 C   0  0  0  0  0  2  0  0  0  0  0  0
    0.2330   50.2070   64.6470 C   0  0  0  0  0  2  0  0  0  0  0  0
    1.3280   49.2990   64.1110 C   0  0  0  0  0  0  0  0  0  0  0  0
    2.1300   49.7100   63.0330 C   0  0  0  0  0  3  0  0  0  0  0  0
    3.1010   48.8560   62.5030 C   0  0  0  0  0  3  0  0  0  0  0  0
    3.2680   47.5820   63.0420 C   0  0  0  0  0  0  0  0  0  0  0  0
    4.4710   46.5320   62.4000 Cl  0  0  0  0  0  0  0  0  0  0  0  0
    2.4650   47.1510   64.0960 C   0  0  0  0  0  3  0  0  0  0  0  0
    1.4940   48.0060   64.6260 C   0  0  0  0  0  3  0  0  0  0  0  0
   -0.8160   47.9900   67.4050 C   0  0  0  0  0  2  0  0  0  0  0  0
    0.2720   48.2550   68.4700 C   0  0  0  0  0  3  0  0  0  0  0  0
    1.3240   47.1320   68.3410 C   0  0  0  0  0  2  0  0  0  0  0  0
    2.3680   47.1650   69.4460 C   0  0  0  0  0  2  0  0  0  0  0  0
    1.7050   47.1290   70.8150 C   0  0  0  0  0  2  0  0  0  0  0  0
    0.7460   48.3020   70.9800 C   0  0  0  0  0  2  0  0  0  0  0  0
   -0.3220   48.3170   69.8880 C   0  0  0  0  0  2  0  0  0  0  0  0
  1 10  1  0  0  0  0
  1 26  1  0  0  0  0
  2  3  1  0  0  0  0
  3  4  2  0  0  0  0
  4  5  1  0  0  0  0
  5 16  1  0  0  0  0
  6  7  1  0  0  0  0
  6  5  1  0  0  0  0
  7  8  1  0  0  0  0
  8  9  1  0  0  0  0
 10  9  1  0  0  0  0
 11 10  1  0  0  0  0
 12 11  1  0  0  0  0
 12  7  1  0  0  0  0
 13  3  1  0  0  0  0
 13  6  2  0  0  0  0
 14  2  1  0  0  0  0
 15  2  1  0  0  0  0
 17  1  1  0  0  0  0
 18 17  1  0  0  0  0
 19 25  1  0  0  0  0
 19 18  1  0  0  0  0
 20 19  2  0  0  0  0
 21 20  1  0  0  0  0
 21 22  2  0  0  0  0
 22 24  1  0  0  0  0
 23 22  1  0  0  0  0
 24 25  2  0  0  0  0
 26 27  1  0  0  0  0
 27 32  1  0  0  0  0
 28 27  1  0  0  0  0
 28 29  1  0  0  0  0
 29 30  1  0  0  0  0
 30 31  1  0  0  0  0
 32 31  1  0  0  0  0
M  END
>  <MODEL>
5

>  <REMARK>
 VINA RESULT:      -9.0      4.290      8.178
  Name = CHEMBL4082060-8.7
  6 active torsions:
  status: ('A' for Active; 'I' for Inactive)
    1  A    between atoms: C_9  and  N_10
    2  A    between atoms: N_10  and  C_11
    3  A    between atoms: N_10  and  C_20
    4  A    between atoms: C_11  and  C_12
    5  A    between atoms: C_12  and  C_13
    6  A    between atoms: C_20  and  C_21
                            x       y       z     vdW  Elec       q    Type
                         _______ _______ _______ _____ _____    ______ ____

>  <TORSDO>
F 6

>  <rfscore_v2>
7.0539149722499745

>  <vina_affinity>
-9.187330433403684

>  <vina_gauss1>
86.44082997288916

>  <vina_gauss2>
1403.3276628429862

>  <vina_repulsion>
1.2058482864019282

>  <vina_hydrophobic>
73.0336123067861

>  <vina_hydrogen>
0.9251309997157462

>  <vina_intra_gauss1>
34.11717329956642

>  <vina_intra_gauss2>
244.31404484203094

>  <vina_intra_repulsion>
0.3418744654370219

>  <vina_intra_hydrophobic>
22.434714133498836

>  <vina_intra_hydrogen>
0.0

>  <vina_num_rotors>
6.0

>  <rfscore_v3>
6.76899185137085

>  <PLEClinear_p5_l1_s65536>
3.362394339132386

>  <nnscore>
7.058171213509896

$$$$
CHEMBL4082060-8.7
 OpenBabel12202021053D

 32 35  0  0  0  0  0  0  0  0999 V2000
   -2.4930   48.6190   68.7120 N   0  0  0  0  0  0  0  0  0  0  0  0
    3.9610   47.1040   73.7210 N   0  0  0  0  0  0  0  0  0  0  0  0
    3.4220   46.9890   72.5100 C   0  0  0  0  0  0  0  0  0  0  0  0
    4.0070   46.5040   71.4240 N   0  0  0  0  0  0  0  0  0  0  0  0
    3.0260   46.6510   70.5180 N   0  0  0  0  0  0  0  0  0  0  0  0
    1.9110   47.2160   71.0750 C   0  0  0  0  0  0  0  0  0  0  0  0
    0.7870   47.5230   70.3930 N   0  0  0  0  0  0  0  0  0  0  0  0
    0.7410   47.6160   68.9390 C   0  0  0  0  0  2  0  0  0  0  0  0
    0.0630   48.9040   68.4810 C   0  0  0  0  0  2  0  0  0  0  0  0
   -1.2440   49.2700   69.2210 C   0  0  0  0  0  3  0  0  0  0  0  0
   -0.9600   49.2060   70.7340 C   0  0  0  0  0  2  0  0  0  0  0  0
   -0.3870   47.8750   71.1870 C   0  0  0  0  0  2  0  0  0  0  0  0
    2.1390   47.3900   72.3560 N   0  0  0  0  0  0  0  0  0  0  0  0
    4.7780   46.5450   73.9050 H   0  0  0  0  0  0  0  0  0  0  0  0
    3.3180   47.1970   74.4920 H   0  0  0  0  0  0  0  0  0  0  0  0
    3.1710   46.3400   69.5690 H   0  0  0  0  0  0  0  0  0  0  0  0
   -3.3820   49.5240   67.9550 C   0  0  0  0  0  2  0  0  0  0  0  0
   -3.7020   50.9290   68.5020 C   0  0  0  0  0  2  0  0  0  0  0  0
   -2.5440   51.8600   68.1820 C   0  0  0  0  0  0  0  0  0  0  0  0
   -1.6700   51.5710   67.1210 C   0  0  0  0  0  3  0  0  0  0  0  0
   -0.5730   52.3960   66.8580 C   0  0  0  0  0  3  0  0  0  0  0  0
   -0.3380   53.5090   67.6630 C   0  0  0  0  0  0  0  0  0  0  0  0
    1.0050   54.5330   67.3350 Cl  0  0  0  0  0  0  0  0  0  0  0  0
   -1.1810   53.7950   68.7330 C   0  0  0  0  0  3  0  0  0  0  0  0
   -2.2790   52.9700   68.9950 C   0  0  0  0  0  3  0  0  0  0  0  0
   -2.2030   47.4280   67.8850 C   0  0  0  0  0  2  0  0  0  0  0  0
   -2.8690   46.0880   68.2720 C   0  0  0  0  0  3  0  0  0  0  0  0
   -4.3960   46.2870   68.1670 C   0  0  0  0  0  2  0  0  0  0  0  0
   -5.1890   45.0990   68.6890 C   0  0  0  0  0  2  0  0  0  0  0  0
   -4.7840   44.7660   70.1180 C   0  0  0  0  0  2  0  0  0  0  0  0
   -3.2930   44.4640   70.1980 C   0  0  0  0  0  2  0  0  0  0  0  0
   -2.4510   45.6290   69.6790 C   0  0  0  0  0  2  0  0  0  0  0  0
  1 10  1  0  0  0  0
  2 14  1  0  0  0  0
  2 15  1  0  0  0  0
  3  2  1  0  0  0  0
  4  3  2  0  0  0  0
  5  6  1  0  0  0  0
  5  4  1  0  0  0  0
  6 13  2  0  0  0  0
  7  6  1  0  0  0  0
  7 12  1  0  0  0  0
  8  7  1  0  0  0  0
  9  8  1  0  0  0  0
  9 10  1  0  0  0  0
 10 11  1  0  0  0  0
 11 12  1  0  0  0  0
 13  3  1  0  0  0  0
 16  5  1  0  0  0  0
 17 18  1  0  0  0  0
 17  1  1  0  0  0  0
 19 18  1  0  0  0  0
 19 25  1  0  0  0  0
 20 19  2  0  0  0  0
 21 20  1  0  0  0  0
 21 22  2  0  0  0  0
 22 24  1  0  0  0  0
 23 22  1  0  0  0  0
 24 25  2  0  0  0  0
 26 27  1  0  0  0  0
 26  1  1  0  0  0  0
 27 32  1  0  0  0  0
 28 27  1  0  0  0  0
 28 29  1  0  0  0  0
 29 30  1  0  0  0  0
 30 31  1  0  0  0  0
 32 31  1  0  0  0  0
M  END
>  <MODEL>
6

>  <REMARK>
 VINA RESULT:      -8.9      4.485      7.323
  Name = CHEMBL4082060-8.7
  6 active torsions:
  status: ('A' for Active; 'I' for Inactive)
    1  A    between atoms: C_9  and  N_10
    2  A    between atoms: N_10  and  C_11
    3  A    between atoms: N_10  and  C_20
    4  A    between atoms: C_11  and  C_12
    5  A    between atoms: C_12  and  C_13
    6  A    between atoms: C_20  and  C_21
                            x       y       z     vdW  Elec       q    Type
                         _______ _______ _______ _____ _____    ______ ____

>  <TORSDO>
F 6

>  <rfscore_v2>
7.660034614718625

>  <vina_affinity>
-10.1949915496913

>  <vina_gauss1>
134.9623712491834

>  <vina_gauss2>
1595.0711857841793

>  <vina_repulsion>
4.375679700595654

>  <vina_hydrophobic>
74.72059609109263

>  <vina_hydrogen>
3.0512502116160998

>  <vina_intra_gauss1>
49.56632957711588

>  <vina_intra_gauss2>
273.82908673516397

>  <vina_intra_repulsion>
3.783916658684806

>  <vina_intra_hydrophobic>
30.063701468716374

>  <vina_intra_hydrogen>
0.0

>  <vina_num_rotors>
6.0

>  <rfscore_v3>
7.413397590021091

>  <PLEClinear_p5_l1_s65536>
5.005717042345501

>  <nnscore>
7.258157140462716

$$$$
CHEMBL4082060-8.7
 OpenBabel12202021053D

 32 35  0  0  0  0  0  0  0  0999 V2000
   -2.0410   48.8970   68.0000 N   0  0  0  0  0  0  0  0  0  0  0  0
    3.6770   47.0740   73.7450 N   0  0  0  0  0  0  0  0  0  0  0  0
    3.2830   46.9820   72.4780 C   0  0  0  0  0  0  0  0  0  0  0  0
    3.9690   46.4650   71.4700 N   0  0  0  0  0  0  0  0  0  0  0  0
    3.1130   46.6580   70.4520 N   0  0  0  0  0  0  0  0  0  0  0  0
    1.9690   47.2800   70.8720 C   0  0  0  0  0  0  0  0  0  0  0  0
    0.9530   47.6420   70.0600 N   0  0  0  0  0  0  0  0  0  0  0  0
    1.0870   47.7320   68.6120 C   0  0  0  0  0  2  0  0  0  0  0  0
    0.5350   49.0510   68.0800 C   0  0  0  0  0  2  0  0  0  0  0  0
   -0.8320   49.4850   68.6580 C   0  0  0  0  0  3  0  0  0  0  0  0
   -0.7350   49.4120   70.1930 C   0  0  0  0  0  2  0  0  0  0  0  0
   -0.2900   48.0560   70.7080 C   0  0  0  0  0  2  0  0  0  0  0  0
    2.0500   47.4470   72.1720 N   0  0  0  0  0  0  0  0  0  0  0  0
    4.4370   46.4750   74.0250 H   0  0  0  0  0  0  0  0  0  0  0  0
    2.9510   47.2010   74.4340 H   0  0  0  0  0  0  0  0  0  0  0  0
    3.3560   46.3370   69.5260 H   0  0  0  0  0  0  0  0  0  0  0  0
   -2.1820   49.2430   66.5710 C   0  0  0  0  0  2  0  0  0  0  0  0
   -1.9370   48.1730   65.4890 C   0  0  0  0  0  2  0  0  0  0  0  0
   -0.5430   48.3620   64.9130 C   0  0  0  0  0  0  0  0  0  0  0  0
   -0.1920   49.5650   64.2780 C   0  0  0  0  0  3  0  0  0  0  0  0
    1.0710   49.7230   63.7010 C   0  0  0  0  0  3  0  0  0  0  0  0
    1.9860   48.6730   63.7470 C   0  0  0  0  0  0  0  0  0  0  0  0
    3.5460   48.8680   63.0470 Cl  0  0  0  0  0  0  0  0  0  0  0  0
    1.6450   47.4660   64.3520 C   0  0  0  0  0  3  0  0  0  0  0  0
    0.3820   47.3090   64.9300 C   0  0  0  0  0  3  0  0  0  0  0  0
   -2.0940   47.4260   68.1450 C   0  0  0  0  0  2  0  0  0  0  0  0
   -3.2830   46.8090   68.9160 C   0  0  0  0  0  3  0  0  0  0  0  0
   -2.8380   45.4160   69.4080 C   0  0  0  0  0  2  0  0  0  0  0  0
   -3.9690   44.6160   70.0350 C   0  0  0  0  0  2  0  0  0  0  0  0
   -5.1430   44.4990   69.0750 C   0  0  0  0  0  2  0  0  0  0  0  0
   -5.6500   45.8790   68.6740 C   0  0  0  0  0  2  0  0  0  0  0  0
   -4.5470   46.7260   68.0420 C   0  0  0  0  0  2  0  0  0  0  0  0
  1 26  1  0  0  0  0
  1 10  1  0  0  0  0
  2 14  1  0  0  0  0
  2 15  1  0  0  0  0
  3  2  1  0  0  0  0
  4  3  2  0  0  0  0
  5  6  1  0  0  0  0
  5  4  1  0  0  0  0
  6 13  2  0  0  0  0
  7 12  1  0  0  0  0
  7  6  1  0  0  0  0
  8  7  1  0  0  0  0
  9  8  1  0  0  0  0
  9 10  1  0  0  0  0
 10 11  1  0  0  0  0
 11 12  1  0  0  0  0
 13  3  1  0  0  0  0
 16  5  1  0  0  0  0
 17  1  1  0  0  0  0
 18 17  1  0  0  0  0
 19 25  1  0  0  0  0
 19 18  1  0  0  0  0
 20 19  2  0  0  0  0
 21 22  2  0  0  0  0
 21 20  1  0  0  0  0
 22 24  1  0  0  0  0
 23 22  1  0  0  0  0
 24 25  2  0  0  0  0
 26 27  1  0  0  0  0
 27 28  1  0  0  0  0
 28 29  1  0  0  0  0
 30 29  1  0  0  0  0
 31 30  1  0  0  0  0
 32 31  1  0  0  0  0
 32 27  1  0  0  0  0
M  END
>  <MODEL>
7

>  <REMARK>
 VINA RESULT:      -8.9      4.048      7.081
  Name = CHEMBL4082060-8.7
  6 active torsions:
  status: ('A' for Active; 'I' for Inactive)
    1  A    between atoms: C_9  and  N_10
    2  A    between atoms: N_10  and  C_11
    3  A    between atoms: N_10  and  C_20
    4  A    between atoms: C_11  and  C_12
    5  A    between atoms: C_12  and  C_13
    6  A    between atoms: C_20  and  C_21
                            x       y       z     vdW  Elec       q    Type
                         _______ _______ _______ _____ _____    ______ ____

>  <TORSDO>
F 6

>  <rfscore_v2>
7.635235764846267

>  <vina_affinity>
-9.645966133690484

>  <vina_gauss1>
124.37557829883843

>  <vina_gauss2>
1477.2232107566815

>  <vina_repulsion>
3.9596948008340003

>  <vina_hydrophobic>
64.55045623298957

>  <vina_hydrogen>
3.4785017216275036

>  <vina_intra_gauss1>
47.178751744462986

>  <vina_intra_gauss2>
287.2777734908991

>  <vina_intra_repulsion>
1.8366063516483866

>  <vina_intra_hydrophobic>
24.552751850141785

>  <vina_intra_hydrogen>
0.0

>  <vina_num_rotors>
6.0

>  <rfscore_v3>
7.361848190476194

>  <PLEClinear_p5_l1_s65536>
6.099018650869597

>  <nnscore>
6.902750412211189

$$$$
CHEMBL4082060-8.7
 OpenBabel12202021053D

 32 35  0  0  0  0  0  0  0  0999 V2000
   -2.8100   48.4350   67.1690 N   0  0  0  0  0  0  0  0  0  0  0  0
   -0.0690   54.1640   61.8120 N   0  0  0  0  0  0  0  0  0  0  0  0
    0.0450   52.9330   62.3020 C   0  0  0  0  0  0  0  0  0  0  0  0
    0.8470   51.9750   61.8600 N   0  0  0  0  0  0  0  0  0  0  0  0
    0.5300   50.9710   62.6960 N   0  0  0  0  0  0  0  0  0  0  0  0
   -0.4380   51.3480   63.5860 C   0  0  0  0  0  0  0  0  0  0  0  0
   -0.9840   50.5330   64.5140 N   0  0  0  0  0  0  0  0  0  0  0  0
   -0.8710   49.0810   64.4590 C   0  0  0  0  0  2  0  0  0  0  0  0
   -2.2250   48.4060   64.6540 C   0  0  0  0  0  2  0  0  0  0  0  0
   -3.0950   48.9710   65.8000 C   0  0  0  0  0  3  0  0  0  0  0  0
   -3.1680   50.4990   65.6220 C   0  0  0  0  0  2  0  0  0  0  0  0
   -1.8060   51.1660   65.5420 C   0  0  0  0  0  2  0  0  0  0  0  0
   -0.7170   52.6130   63.3730 N   0  0  0  0  0  0  0  0  0  0  0  0
    0.6880   54.4910   61.2340 H   0  0  0  0  0  0  0  0  0  0  0  0
   -0.4750   54.8560   62.4240 H   0  0  0  0  0  0  0  0  0  0  0  0
    1.0070   50.0850   62.6170 H   0  0  0  0  0  0  0  0  0  0  0  0
   -3.3180   49.2800   68.2680 C   0  0  0  0  0  2  0  0  0  0  0  0
   -2.3600   50.2200   69.0260 C   0  0  0  0  0  2  0  0  0  0  0  0
   -1.1110   49.4440   69.4140 C   0  0  0  0  0  0  0  0  0  0  0  0
   -0.2320   48.9690   68.4260 C   0  0  0  0  0  3  0  0  0  0  0  0
    0.8880   48.2100   68.7760 C   0  0  0  0  0  3  0  0  0  0  0  0
    1.1290   47.9130   70.1150 C   0  0  0  0  0  0  0  0  0  0  0  0
    2.5130   46.9890   70.5510 Cl  0  0  0  0  0  0  0  0  0  0  0  0
    0.2540   48.3570   71.1040 C   0  0  0  0  0  3  0  0  0  0  0  0
   -0.8660   49.1170   70.7540 C   0  0  0  0  0  3  0  0  0  0  0  0
   -3.3220   47.0580   67.3450 C   0  0  0  0  0  2  0  0  0  0  0  0
   -3.4330   46.4960   68.7800 C   0  0  0  0  0  3  0  0  0  0  0  0
   -2.0450   45.9420   69.1640 C   0  0  0  0  0  2  0  0  0  0  0  0
   -2.0480   45.1960   70.4900 C   0  0  0  0  0  2  0  0  0  0  0  0
   -3.0890   44.0870   70.4820 C   0  0  0  0  0  2  0  0  0  0  0  0
   -4.4770   44.6530   70.2080 C   0  0  0  0  0  2  0  0  0  0  0  0
   -4.5250   45.4180   68.8870 C   0  0  0  0  0  2  0  0  0  0  0  0
  1 26  1  0  0  0  0
  1 17  1  0  0  0  0
  2  3  1  0  0  0  0
  2 15  1  0  0  0  0
  3 13  1  0  0  0  0
  4  3  2  0  0  0  0
  4  5  1  0  0  0  0
  5  6  1  0  0  0  0
  6  7  1  0  0  0  0
  7 12  1  0  0  0  0
  8  7  1  0  0  0  0
  8  9  1  0  0  0  0
  9 10  1  0  0  0  0
 10  1  1  0  0  0  0
 11 10  1  0  0  0  0
 12 11  1  0  0  0  0
 13  6  2  0  0  0  0
 14  2  1  0  0  0  0
 16  5  1  0  0  0  0
 17 18  1  0  0  0  0
 18 19  1  0  0  0  0
 19 25  1  0  0  0  0
 20 21  1  0  0  0  0
 20 19  2  0  0  0  0
 21 22  2  0  0  0  0
 22 23  1  0  0  0  0
 22 24  1  0  0  0  0
 25 24  2  0  0  0  0
 26 27  1  0  0  0  0
 27 32  1  0  0  0  0
 27 28  1  0  0  0  0
 28 29  1  0  0  0  0
 30 29  1  0  0  0  0
 31 30  1  0  0  0  0
 32 31  1  0  0  0  0
M  END
>  <MODEL>
8

>  <REMARK>
 VINA RESULT:      -8.9      2.848      5.344
  Name = CHEMBL4082060-8.7
  6 active torsions:
  status: ('A' for Active; 'I' for Inactive)
    1  A    between atoms: C_9  and  N_10
    2  A    between atoms: N_10  and  C_11
    3  A    between atoms: N_10  and  C_20
    4  A    between atoms: C_11  and  C_12
    5  A    between atoms: C_12  and  C_13
    6  A    between atoms: C_20  and  C_21
                            x       y       z     vdW  Elec       q    Type
                         _______ _______ _______ _____ _____    ______ ____

>  <TORSDO>
F 6

>  <rfscore_v2>
7.300865983072489

>  <vina_affinity>
-8.861909237737478

>  <vina_gauss1>
102.31917278492688

>  <vina_gauss2>
1316.679077345153

>  <vina_repulsion>
0.7984624945731444

>  <vina_hydrophobic>
62.86385428434161

>  <vina_hydrogen>
0.0

>  <vina_intra_gauss1>
59.42312700442477

>  <vina_intra_gauss2>
261.1052449376032

>  <vina_intra_repulsion>
1.6628111288561067

>  <vina_intra_hydrophobic>
45.13794409128029

>  <vina_intra_hydrogen>
0.0

>  <vina_num_rotors>
6.0

>  <rfscore_v3>
6.698162775391276

>  <PLEClinear_p5_l1_s65536>
4.003043218354079

>  <nnscore>
6.6566952376799

$$$$
CHEMBL4082060-8.7
 OpenBabel12202021053D

 32 35  0  0  0  0  0  0  0  0999 V2000
   -2.3160   49.3050   68.2060 N   0  0  0  0  0  0  0  0  0  0  0  0
   -4.2940   53.0160   61.0400 N   0  0  0  0  0  0  0  0  0  0  0  0
   -4.7070   52.5070   62.1970 C   0  0  0  0  0  0  0  0  0  0  0  0
   -5.9390   52.5410   62.6840 N   0  0  0  0  0  0  0  0  0  0  0  0
   -5.7660   51.9120   63.8590 N   0  0  0  0  0  0  0  0  0  0  0  0
   -4.4630   51.5380   64.0400 C   0  0  0  0  0  0  0  0  0  0  0  0
   -3.9880   50.9300   65.1480 N   0  0  0  0  0  0  0  0  0  0  0  0
   -4.7110   50.9070   66.4130 C   0  0  0  0  0  2  0  0  0  0  0  0
   -3.8140   51.3130   67.5780 C   0  0  0  0  0  2  0  0  0  0  0  0
   -2.4080   50.6690   67.5940 C   0  0  0  0  0  3  0  0  0  0  0  0
   -1.7790   50.8840   66.2050 C   0  0  0  0  0  2  0  0  0  0  0  0
   -2.6400   50.3730   65.0640 C   0  0  0  0  0  2  0  0  0  0  0  0
   -3.7910   51.8710   62.9630 N   0  0  0  0  0  0  0  0  0  0  0  0
   -5.0050   53.2110   60.3540 H   0  0  0  0  0  0  0  0  0  0  0  0
   -3.4270   52.6530   60.6730 H   0  0  0  0  0  0  0  0  0  0  0  0
   -6.5580   51.7620   64.4670 H   0  0  0  0  0  0  0  0  0  0  0  0
   -3.5440   48.4960   68.0680 C   0  0  0  0  0  2  0  0  0  0  0  0
   -3.5110   47.1690   67.2830 C   0  0  0  0  0  2  0  0  0  0  0  0
   -4.0840   46.0650   68.1570 C   0  0  0  0  0  0  0  0  0  0  0  0
   -5.3960   45.6040   67.9560 C   0  0  0  0  0  3  0  0  0  0  0  0
   -5.9430   44.6270   68.7910 C   0  0  0  0  0  3  0  0  0  0  0  0
   -5.1840   44.1130   69.8410 C   0  0  0  0  0  0  0  0  0  0  0  0
   -5.8500   42.9010   70.8640 Cl  0  0  0  0  0  0  0  0  0  0  0  0
   -3.8900   44.5760   70.0680 C   0  0  0  0  0  3  0  0  0  0  0  0
   -3.3430   45.5520   69.2310 C   0  0  0  0  0  3  0  0  0  0  0  0
   -1.1710   48.5340   67.6760 C   0  0  0  0  0  2  0  0  0  0  0  0
   -0.3780   47.6360   68.6530 C   0  0  0  0  0  3  0  0  0  0  0  0
   -0.3830   48.3360   70.0280 C   0  0  0  0  0  2  0  0  0  0  0  0
    0.5110   47.6500   71.0490 C   0  0  0  0  0  2  0  0  0  0  0  0
    1.9300   47.5140   70.5180 C   0  0  0  0  0  2  0  0  0  0  0  0
    1.9430   46.7280   69.2130 C   0  0  0  0  0  2  0  0  0  0  0  0
    1.0530   47.3750   68.1530 C   0  0  0  0  0  2  0  0  0  0  0  0
  2  3  1  0  0  0  0
  3  4  2  0  0  0  0
  3 13  1  0  0  0  0
  4  5  1  0  0  0  0
  5  6  1  0  0  0  0
  5 16  1  0  0  0  0
  6  7  1  0  0  0  0
  7  8  1  0  0  0  0
  8  9  1  0  0  0  0
  9 10  1  0  0  0  0
 10  1  1  0  0  0  0
 11 10  1  0  0  0  0
 12  7  1  0  0  0  0
 12 11  1  0  0  0  0
 13  6  2  0  0  0  0
 14  2  1  0  0  0  0
 15  2  1  0  0  0  0
 17  1  1  0  0  0  0
 18 17  1  0  0  0  0
 18 19  1  0  0  0  0
 19 25  1  0  0  0  0
 20 19  2  0  0  0  0
 20 21  1  0  0  0  0
 21 22  2  0  0  0  0
 22 24  1  0  0  0  0
 22 23  1  0  0  0  0
 25 24  2  0  0  0  0
 26  1  1  0  0  0  0
 26 27  1  0  0  0  0
 27 28  1  0  0  0  0
 28 29  1  0  0  0  0
 30 29  1  0  0  0  0
 31 30  1  0  0  0  0
 32 27  1  0  0  0  0
 32 31  1  0  0  0  0
M  END
>  <MODEL>
9

>  <REMARK>
 VINA RESULT:      -8.6      3.456      5.292
  Name = CHEMBL4082060-8.7
  6 active torsions:
  status: ('A' for Active; 'I' for Inactive)
    1  A    between atoms: C_9  and  N_10
    2  A    between atoms: N_10  and  C_11
    3  A    between atoms: N_10  and  C_20
    4  A    between atoms: C_11  and  C_12
    5  A    between atoms: C_12  and  C_13
    6  A    between atoms: C_20  and  C_21
                            x       y       z     vdW  Elec       q    Type
                         _______ _______ _______ _____ _____    ______ ____

>  <TORSDO>
F 6

>  <rfscore_v2>
7.029604961205461

>  <vina_affinity>
-9.052748333953224

>  <vina_gauss1>
91.88778358178932

>  <vina_gauss2>
1265.1815364370673

>  <vina_repulsion>
0.7740899473580715

>  <vina_hydrophobic>
72.09390853111002

>  <vina_hydrogen>
0.9377522009925984

>  <vina_intra_gauss1>
38.11094394484885

>  <vina_intra_gauss2>
264.4923479170967

>  <vina_intra_repulsion>
1.3405914522924844

>  <vina_intra_hydrophobic>
25.254286623129488

>  <vina_intra_hydrogen>
0.0

>  <vina_num_rotors>
6.0

>  <rfscore_v3>
6.702547625208121

>  <PLEClinear_p5_l1_s65536>
2.2141068767613614

>  <nnscore>
7.023722835212314

$$$$
