CHEMBL4072036-182
 OpenBabel12202021063D

 27 29  0  0  1  0  0  0  0  0999 V2000
   -0.8820   48.6390   68.0790 C   0  0  2  0  0  3  0  0  0  0  0  0
   -0.0870   47.7970   69.1080 C   0  0  0  0  0  2  0  0  0  0  0  0
   -0.4820   46.3200   69.1100 C   0  0  0  0  0  2  0  0  0  0  0  0
   -1.9320   46.1820   69.2640 N   0  0  2  0  0  0  0  0  0  0  0  0
   -2.4280   45.3580   70.2220 C   0  0  2  0  0  3  0  0  0  0  0  0
   -1.8030   44.8200   71.2460 N   0  0  0  0  0  0  0  0  0  0  0  0
   -2.7690   44.1140   71.8850 C   0  0  0  0  0  0  0  0  0  0  0  0
   -2.4600   43.4770   73.0130 N   0  0  0  0  0  0  0  0  0  0  0  0
   -3.9780   44.1680   71.3370 N   0  0  0  0  0  2  0  0  0  0  0  0
   -3.7330   44.9360   70.2640 N   0  0  0  0  0  0  0  0  0  0  0  0
   -2.7490   46.9230   68.3140 C   0  0  0  0  0  2  0  0  0  0  0  0
   -2.3780   48.4010   68.4000 C   0  0  0  0  0  2  0  0  0  0  0  0
   -1.6170   43.7830   73.4780 H   0  0  0  0  0  0  0  0  0  0  0  0
   -3.2280   43.2530   73.6300 H   0  0  0  0  0  0  0  0  0  0  0  0
   -4.4790   45.1220   69.6110 H   0  0  0  0  0  0  0  0  0  0  0  0
   -0.5130   48.3980   66.6460 N   0  0  0  0  0  0  0  0  0  0  0  0
   -2.1110   48.2450   64.6580 C   0  0  0  0  0  1  0  0  0  0  0  0
   -1.4400   49.1020   65.7290 C   0  0  0  0  0  2  0  0  0  0  0  0
    0.9130   48.7030   66.3460 C   0  0  0  0  0  2  0  0  0  0  0  0
    1.5680   47.8670   65.2240 C   0  0  0  0  0  2  0  0  0  0  0  0
    1.9760   48.6580   64.0000 C   0  0  0  0  0  0  0  0  0  0  0  0
    1.3010   49.8440   63.6670 C   0  0  0  0  0  3  0  0  0  0  0  0
    1.7350   50.6360   62.6020 C   0  0  0  0  0  3  0  0  0  0  0  0
    2.8440   50.2460   61.8560 C   0  0  0  0  0  0  0  0  0  0  0  0
    3.3970   51.2380   60.5630 Cl  0  0  0  0  0  0  0  0  0  0  0  0
    3.5170   49.0670   62.1590 C   0  0  0  0  0  3  0  0  0  0  0  0
    3.0840   48.2740   63.2310 C   0  0  0  0  0  3  0  0  0  0  0  0
  1 16  1  6  0  0  0
  1 12  1  0  0  0  0
  1  2  1  0  0  0  0
  2  3  1  0  0  0  0
  4  3  1  6  0  0  0
  4 11  1  0  0  0  0
  4  5  1  0  0  0  0
  5 10  1  0  0  0  0
  5  6  1  6  0  0  0
  6  7  2  0  0  0  0
  7  8  1  0  0  0  0
  8 13  1  0  0  0  0
  8 14  1  0  0  0  0
  9  7  1  0  0  0  0
 10  9  1  0  0  0  0
 11 12  1  0  0  0  0
 15 10  1  0  0  0  0
 17 18  1  0  0  0  0
 18 16  1  0  0  0  0
 19 16  1  0  0  0  0
 20 19  1  0  0  0  0
 21 20  1  0  0  0  0
 22 21  1  0  0  0  0
 23 22  2  0  0  0  0
 24 26  2  0  0  0  0
 24 23  1  0  0  0  0
 25 24  1  0  0  0  0
 26 27  1  0  0  0  0
 27 21  2  0  0  0  0
M  END
>  <MODEL>
1

>  <REMARK>
 VINA RESULT:      -8.3      0.000      0.000
  Name = CHEMBL4072036-182
  6 active torsions:
  status: ('A' for Active; 'I' for Inactive)
    1  A    between atoms: C_1  and  C_2
    2  A    between atoms: C_2  and  N_3
    3  A    between atoms: N_3  and  C_4
    4  A    between atoms: N_3  and  C_13
    5  A    between atoms: C_4  and  C_5
    6  A    between atoms: C_5  and  C_6
                            x       y       z     vdW  Elec       q    Type
                         _______ _______ _______ _____ _____    ______ ____

>  <TORSDO>
F 5

>  <rfscore_v2>
7.14954055949606

>  <vina_affinity>
-7.962601179916655

>  <vina_gauss1>
78.83651848268772

>  <vina_gauss2>
1207.8146162700068

>  <vina_repulsion>
0.9218635217451643

>  <vina_hydrophobic>
46.78816830054893

>  <vina_hydrogen>
0.6556374753356506

>  <vina_intra_gauss1>
28.32157459522912

>  <vina_intra_gauss2>
137.84398037450308

>  <vina_intra_repulsion>
0.24086495340230907

>  <vina_intra_hydrophobic>
13.194946464503756

>  <vina_intra_hydrogen>
0.0

>  <vina_num_rotors>
5.0

>  <rfscore_v3>
6.903447749417251

>  <PLEClinear_p5_l1_s65536>
2.3835699780798523

>  <nnscore>
6.615887707152159

$$$$
CHEMBL4072036-182
 OpenBabel12202021063D

 27 29  0  0  1  0  0  0  0  0999 V2000
   -0.7200   50.0010   67.6830 C   0  0  2  0  0  3  0  0  0  0  0  0
    0.1440   48.8990   68.3470 C   0  0  0  0  0  2  0  0  0  0  0  0
   -0.3360   47.4830   68.0240 C   0  0  0  0  0  2  0  0  0  0  0  0
   -1.7620   47.3480   68.3310 N   0  0  2  0  0  0  0  0  0  0  0  0
   -2.1840   46.3150   69.1040 C   0  0  2  0  0  3  0  0  0  0  0  0
   -1.4710   45.5120   69.8630 N   0  0  0  0  0  0  0  0  0  0  0  0
   -2.3920   44.6890   70.4240 C   0  0  0  0  0  0  0  0  0  0  0  0
   -1.9850   43.7720   71.3000 N   0  0  0  0  0  0  0  0  0  0  0  0
   -3.6540   44.9160   70.0760 N   0  0  0  0  0  2  0  0  0  0  0  0
   -3.4970   45.9310   69.2120 N   0  0  0  0  0  0  0  0  0  0  0  0
   -2.6430   48.3320   67.7200 C   0  0  0  0  0  2  0  0  0  0  0  0
   -2.1760   49.7260   68.1300 C   0  0  0  0  0  2  0  0  0  0  0  0
   -1.0750   43.9240   71.7100 H   0  0  0  0  0  0  0  0  0  0  0  0
   -2.6840   43.4150   71.9370 H   0  0  0  0  0  0  0  0  0  0  0  0
   -4.3060   46.3000   68.7340 H   0  0  0  0  0  0  0  0  0  0  0  0
   -0.5450   50.1330   66.2000 N   0  0  0  0  0  0  0  0  0  0  0  0
   -0.3470   51.9720   64.4380 C   0  0  0  0  0  1  0  0  0  0  0  0
   -0.9910   51.4630   65.7240 C   0  0  0  0  0  2  0  0  0  0  0  0
    0.8320   49.8050   65.7380 C   0  0  0  0  0  2  0  0  0  0  0  0
    0.9640   48.5820   64.8010 C   0  0  0  0  0  2  0  0  0  0  0  0
    2.0320   48.7140   63.7370 C   0  0  0  0  0  0  0  0  0  0  0  0
    2.8940   47.6400   63.4630 C   0  0  0  0  0  3  0  0  0  0  0  0
    3.8140   47.7130   62.4140 C   0  0  0  0  0  3  0  0  0  0  0  0
    3.8840   48.8630   61.6340 C   0  0  0  0  0  0  0  0  0  0  0  0
    4.9940   48.9420   60.3220 Cl  0  0  0  0  0  0  0  0  0  0  0  0
    3.0490   49.9450   61.8980 C   0  0  0  0  0  3  0  0  0  0  0  0
    2.1240   49.8700   62.9480 C   0  0  0  0  0  3  0  0  0  0  0  0
  1 16  1  6  0  0  0
  1 12  1  0  0  0  0
  1  2  1  0  0  0  0
  3  2  1  0  0  0  0
  4  3  1  6  0  0  0
  4 11  1  0  0  0  0
  4  5  1  0  0  0  0
  5 10  1  0  0  0  0
  5  6  1  6  0  0  0
  6  7  2  0  0  0  0
  7  8  1  0  0  0  0
  8 13  1  0  0  0  0
  8 14  1  0  0  0  0
  9  7  1  0  0  0  0
 10  9  1  0  0  0  0
 11 12  1  0  0  0  0
 15 10  1  0  0  0  0
 17 18  1  0  0  0  0
 18 16  1  0  0  0  0
 19 16  1  0  0  0  0
 20 19  1  0  0  0  0
 21 20  1  0  0  0  0
 22 21  1  0  0  0  0
 23 22  2  0  0  0  0
 24 26  2  0  0  0  0
 24 23  1  0  0  0  0
 25 24  1  0  0  0  0
 26 27  1  0  0  0  0
 27 21  2  0  0  0  0
M  END
>  <MODEL>
2

>  <REMARK>
 VINA RESULT:      -8.0      1.435      1.964
  Name = CHEMBL4072036-182
  6 active torsions:
  status: ('A' for Active; 'I' for Inactive)
    1  A    between atoms: C_1  and  C_2
    2  A    between atoms: C_2  and  N_3
    3  A    between atoms: N_3  and  C_4
    4  A    between atoms: N_3  and  C_13
    5  A    between atoms: C_4  and  C_5
    6  A    between atoms: C_5  and  C_6
                            x       y       z     vdW  Elec       q    Type
                         _______ _______ _______ _____ _____    ______ ____

>  <TORSDO>
F 5

>  <rfscore_v2>
7.0611446164946186

>  <vina_affinity>
-7.895503528262407

>  <vina_gauss1>
71.74432133289939

>  <vina_gauss2>
1223.5706885968514

>  <vina_repulsion>
0.9883846685374029

>  <vina_hydrophobic>
41.706049157706346

>  <vina_hydrogen>
1.198597127434609

>  <vina_intra_gauss1>
22.355892142075

>  <vina_intra_gauss2>
150.73769797380868

>  <vina_intra_repulsion>
0.4695556681961533

>  <vina_intra_hydrophobic>
14.164290636956046

>  <vina_intra_hydrogen>
0.0

>  <vina_num_rotors>
5.0

>  <rfscore_v3>
6.9579180600118855

>  <PLEClinear_p5_l1_s65536>
2.8847356647173603

>  <nnscore>
6.415417878973068

$$$$
CHEMBL4072036-182
 OpenBabel12202021063D

 27 29  0  0  1  0  0  0  0  0999 V2000
   -2.4190   49.9440   67.0640 C   0  0  2  0  0  3  0  0  0  0  0  0
   -1.2650   48.9800   66.6870 C   0  0  0  0  0  2  0  0  0  0  0  0
   -1.0700   47.8500   67.6990 C   0  0  0  0  0  2  0  0  0  0  0  0
   -0.9320   48.3980   69.0510 N   0  0  2  0  0  0  0  0  0  0  0  0
    0.1180   48.0170   69.8220 C   0  0  1  0  0  3  0  0  0  0  0  0
    1.2210   47.3990   69.4610 N   0  0  0  0  0  0  0  0  0  0  0  0
    1.9290   47.2910   70.6130 C   0  0  0  0  0  0  0  0  0  0  0  0
    3.1400   46.7390   70.5750 N   0  0  0  0  0  0  0  0  0  0  0  0
    1.3510   47.8070   71.6920 N   0  0  0  0  0  2  0  0  0  0  0  0
    0.1890   48.2340   71.1750 N   0  0  0  0  0  0  0  0  0  0  0  0
   -1.9930   49.2920   69.4900 C   0  0  0  0  0  2  0  0  0  0  0  0
   -2.1030   50.4440   68.4950 C   0  0  0  0  0  2  0  0  0  0  0  0
    3.5780   46.6950   69.6650 H   0  0  0  0  0  0  0  0  0  0  0  0
    3.7640   46.9670   71.3360 H   0  0  0  0  0  0  0  0  0  0  0  0
   -0.5010   48.6450   71.7870 H   0  0  0  0  0  0  0  0  0  0  0  0
   -3.7960   49.3750   66.9010 N   0  0  0  0  0  0  0  0  0  0  0  0
   -4.2380   51.2500   65.2220 C   0  0  0  0  0  1  0  0  0  0  0  0
   -4.7380   50.3940   66.3830 C   0  0  0  0  0  2  0  0  0  0  0  0
   -3.8240   48.1230   66.0950 C   0  0  0  0  0  2  0  0  0  0  0  0
   -5.1360   47.3070   66.1480 C   0  0  0  0  0  2  0  0  0  0  0  0
   -5.1880   46.2660   67.2450 C   0  0  0  0  0  0  0  0  0  0  0  0
   -4.1120   46.1220   68.1360 C   0  0  0  0  0  3  0  0  0  0  0  0
   -4.1930   45.2370   69.2140 C   0  0  0  0  0  3  0  0  0  0  0  0
   -5.3470   44.4840   69.4070 C   0  0  0  0  0  0  0  0  0  0  0  0
   -5.4580   43.4170   70.7530 Cl  0  0  0  0  0  0  0  0  0  0  0  0
   -6.4180   44.5990   68.5270 C   0  0  0  0  0  3  0  0  0  0  0  0
   -6.3390   45.4900   67.4470 C   0  0  0  0  0  3  0  0  0  0  0  0
  1 16  1  1  0  0  0
  1 12  1  0  0  0  0
  2  1  1  0  0  0  0
  2  3  1  0  0  0  0
  4  3  1  1  0  0  0
  4 11  1  0  0  0  0
  4  5  1  0  0  0  0
  5  6  1  6  0  0  0
  5 10  1  0  0  0  0
  6  7  2  0  0  0  0
  7  9  1  0  0  0  0
  8  7  1  0  0  0  0
  8 14  1  0  0  0  0
 10  9  1  0  0  0  0
 10 15  1  0  0  0  0
 12 11  1  0  0  0  0
 13  8  1  0  0  0  0
 17 18  1  0  0  0  0
 18 16  1  0  0  0  0
 19 20  1  0  0  0  0
 19 16  1  0  0  0  0
 20 21  1  0  0  0  0
 21 27  2  0  0  0  0
 21 22  1  0  0  0  0
 22 23  2  0  0  0  0
 23 24  1  0  0  0  0
 24 25  1  0  0  0  0
 26 24  2  0  0  0  0
 27 26  1  0  0  0  0
M  END
>  <MODEL>
3

>  <REMARK>
 VINA RESULT:      -7.9      4.931      7.188
  Name = CHEMBL4072036-182
  6 active torsions:
  status: ('A' for Active; 'I' for Inactive)
    1  A    between atoms: C_1  and  C_2
    2  A    between atoms: C_2  and  N_3
    3  A    between atoms: N_3  and  C_4
    4  A    between atoms: N_3  and  C_13
    5  A    between atoms: C_4  and  C_5
    6  A    between atoms: C_5  and  C_6
                            x       y       z     vdW  Elec       q    Type
                         _______ _______ _______ _____ _____    ______ ____

>  <TORSDO>
F 5

>  <rfscore_v2>
6.895380422077916

>  <vina_affinity>
-7.674061870511708

>  <vina_gauss1>
79.1817845215029

>  <vina_gauss2>
1145.1659097249585

>  <vina_repulsion>
0.8814506359278058

>  <vina_hydrophobic>
40.75075268675273

>  <vina_hydrogen>
0.8532614299223671

>  <vina_intra_gauss1>
28.627718001939783

>  <vina_intra_gauss2>
195.08343673001784

>  <vina_intra_repulsion>
0.9585025617350507

>  <vina_intra_hydrophobic>
14.071457828615825

>  <vina_intra_hydrogen>
0.0

>  <vina_num_rotors>
5.0

>  <rfscore_v3>
7.08102503076336

>  <PLEClinear_p5_l1_s65536>
2.367598966212661

>  <nnscore>
7.4989993986616525

$$$$
CHEMBL4072036-182
 OpenBabel12202021063D

 27 29  0  0  1  0  0  0  0  0999 V2000
    0.1700   48.4270   67.9960 C   0  0  2  0  0  3  0  0  0  0  0  0
   -0.3410   49.5730   67.0860 C   0  0  0  0  0  2  0  0  0  0  0  0
   -0.3920   49.1890   65.6070 C   0  0  0  0  0  2  0  0  0  0  0  0
    0.9030   48.6570   65.1750 N   0  0  2  0  0  0  0  0  0  0  0  0
    1.4980   49.1650   64.0660 C   0  0  2  0  0  3  0  0  0  0  0  0
    1.2170   50.2740   63.4170 N   0  0  0  0  0  0  0  0  0  0  0  0
    2.1290   50.3070   62.4130 C   0  0  0  0  0  0  0  0  0  0  0  0
    2.1380   51.3510   61.5880 N   0  0  0  0  0  0  0  0  0  0  0  0
    2.9820   49.2900   62.3800 N   0  0  0  0  0  2  0  0  0  0  0  0
    2.5450   48.5600   63.4170 N   0  0  0  0  0  0  0  0  0  0  0  0
    1.4370   47.5570   65.9650 C   0  0  0  0  0  2  0  0  0  0  0  0
    1.5440   48.0070   67.4190 C   0  0  0  0  0  2  0  0  0  0  0  0
    1.6680   52.1820   61.9190 H   0  0  0  0  0  0  0  0  0  0  0  0
    2.9980   51.5210   61.0850 H   0  0  0  0  0  0  0  0  0  0  0  0
    2.9870   47.6750   63.6180 H   0  0  0  0  0  0  0  0  0  0  0  0
   -0.7920   47.2930   68.1820 N   0  0  0  0  0  0  0  0  0  0  0  0
   -0.7290   46.7360   70.6750 C   0  0  0  0  0  1  0  0  0  0  0  0
   -0.3330   46.3710   69.2480 C   0  0  0  0  0  2  0  0  0  0  0  0
   -2.1960   47.7400   68.3940 C   0  0  0  0  0  2  0  0  0  0  0  0
   -3.2380   47.2250   67.3750 C   0  0  0  0  0  2  0  0  0  0  0  0
   -4.2680   46.2760   67.9480 C   0  0  0  0  0  0  0  0  0  0  0  0
   -5.4860   46.0680   67.2820 C   0  0  0  0  0  3  0  0  0  0  0  0
   -6.4000   45.1180   67.7460 C   0  0  0  0  0  3  0  0  0  0  0  0
   -6.1060   44.3740   68.8840 C   0  0  0  0  0  0  0  0  0  0  0  0
   -7.2170   43.1820   69.4380 Cl  0  0  0  0  0  0  0  0  0  0  0  0
   -4.9110   44.5760   69.5690 C   0  0  0  0  0  3  0  0  0  0  0  0
   -3.9930   45.5260   69.1010 C   0  0  0  0  0  3  0  0  0  0  0  0
  1 16  1  6  0  0  0
  2  1  1  0  0  0  0
  3  2  1  0  0  0  0
  4  3  1  6  0  0  0
  4 11  1  0  0  0  0
  5  6  1  6  0  0  0
  5  4  1  0  0  0  0
  7  6  2  0  0  0  0
  8 13  1  0  0  0  0
  8  7  1  0  0  0  0
  9  7  1  0  0  0  0
  9 10  1  0  0  0  0
 10 15  1  0  0  0  0
 10  5  1  0  0  0  0
 11 12  1  0  0  0  0
 12  1  1  0  0  0  0
 14  8  1  0  0  0  0
 16 19  1  0  0  0  0
 16 18  1  0  0  0  0
 18 17  1  0  0  0  0
 20 21  1  0  0  0  0
 20 19  1  0  0  0  0
 21 27  1  0  0  0  0
 22 23  1  0  0  0  0
 22 21  2  0  0  0  0
 23 24  2  0  0  0  0
 24 25  1  0  0  0  0
 24 26  1  0  0  0  0
 27 26  2  0  0  0  0
M  END
>  <MODEL>
4

>  <REMARK>
 VINA RESULT:      -7.9      4.292      8.923
  Name = CHEMBL4072036-182
  6 active torsions:
  status: ('A' for Active; 'I' for Inactive)
    1  A    between atoms: C_1  and  C_2
    2  A    between atoms: C_2  and  N_3
    3  A    between atoms: N_3  and  C_4
    4  A    between atoms: N_3  and  C_13
    5  A    between atoms: C_4  and  C_5
    6  A    between atoms: C_5  and  C_6
                            x       y       z     vdW  Elec       q    Type
                         _______ _______ _______ _____ _____    ______ ____

>  <TORSDO>
F 5

>  <rfscore_v2>
6.827315910145406

>  <vina_affinity>
-7.8220051634916015

>  <vina_gauss1>
88.26286648006939

>  <vina_gauss2>
1082.806717715814

>  <vina_repulsion>
0.33846927539041183

>  <vina_hydrophobic>
47.4306311976287

>  <vina_hydrogen>
0.0

>  <vina_intra_gauss1>
26.81420743182973

>  <vina_intra_gauss2>
147.36929048630037

>  <vina_intra_repulsion>
0.0736098363359172

>  <vina_intra_hydrophobic>
14.420961249410365

>  <vina_intra_hydrogen>
0.0

>  <vina_num_rotors>
5.0

>  <rfscore_v3>
6.519106003219007

>  <PLEClinear_p5_l1_s65536>
2.7519779687691455

>  <nnscore>
7.201054727343342

$$$$
CHEMBL4072036-182
 OpenBabel12202021063D

 27 29  0  0  1  0  0  0  0  0999 V2000
    0.1610   50.3310   65.9660 C   0  0  2  0  0  3  0  0  0  0  0  0
    1.3050   49.2920   66.0830 C   0  0  0  0  0  2  0  0  0  0  0  0
    0.9480   48.1030   66.9750 C   0  0  0  0  0  2  0  0  0  0  0  0
    0.4710   48.5700   68.2790 N   0  0  2  0  0  0  0  0  0  0  0  0
    1.0210   48.0650   69.4120 C   0  0  2  0  0  3  0  0  0  0  0  0
    2.1310   47.3730   69.5480 N   0  0  0  0  0  0  0  0  0  0  0  0
    2.2160   47.1500   70.8840 C   0  0  0  0  0  0  0  0  0  0  0  0
    3.2760   46.5000   71.3610 N   0  0  0  0  0  0  0  0  0  0  0  0
    1.2320   47.6600   71.6150 N   0  0  0  0  0  2  0  0  0  0  0  0
    0.4670   48.2090   70.6590 N   0  0  0  0  0  0  0  0  0  0  0  0
   -0.6230   49.5290   68.2530 C   0  0  0  0  0  2  0  0  0  0  0  0
   -0.1970   50.7340   67.4180 C   0  0  0  0  0  2  0  0  0  0  0  0
    4.0830   46.4620   70.7540 H   0  0  0  0  0  0  0  0  0  0  0  0
    3.4860   46.6370   72.3390 H   0  0  0  0  0  0  0  0  0  0  0  0
   -0.4050   48.6470   70.9160 H   0  0  0  0  0  0  0  0  0  0  0  0
   -1.0110   49.8900   65.1420 N   0  0  0  0  0  0  0  0  0  0  0  0
   -3.2720   51.0080   64.7370 C   0  0  0  0  0  1  0  0  0  0  0  0
   -2.2850   50.3810   65.7170 C   0  0  0  0  0  2  0  0  0  0  0  0
   -0.8780   50.2320   63.6990 C   0  0  0  0  0  2  0  0  0  0  0  0
    0.0490   51.4210   63.3620 C   0  0  0  0  0  2  0  0  0  0  0  0
    1.2310   51.0730   62.4830 C   0  0  0  0  0  0  0  0  0  0  0  0
    1.6030   51.9210   61.4280 C   0  0  0  0  0  3  0  0  0  0  0  0
    2.7520   51.6640   60.6770 C   0  0  0  0  0  3  0  0  0  0  0  0
    3.5360   50.5520   60.9700 C   0  0  0  0  0  0  0  0  0  0  0  0
    4.9690   50.2520   60.0660 Cl  0  0  0  0  0  0  0  0  0  0  0  0
    3.1770   49.6900   62.0020 C   0  0  0  0  0  3  0  0  0  0  0  0
    2.0260   49.9500   62.7580 C   0  0  0  0  0  3  0  0  0  0  0  0
  1 16  1  1  0  0  0
  1  2  1  0  0  0  0
  1 12  1  0  0  0  0
  2  3  1  0  0  0  0
  4  3  1  6  0  0  0
  4  5  1  0  0  0  0
  5  6  1  6  0  0  0
  5 10  1  0  0  0  0
  6  7  2  0  0  0  0
  7  8  1  0  0  0  0
  7  9  1  0  0  0  0
  8 14  1  0  0  0  0
 10 15  1  0  0  0  0
 10  9  1  0  0  0  0
 11  4  1  0  0  0  0
 12 11  1  0  0  0  0
 13  8  1  0  0  0  0
 16 18  1  0  0  0  0
 17 18  1  0  0  0  0
 19 16  1  0  0  0  0
 20 19  1  0  0  0  0
 21 27  1  0  0  0  0
 21 20  1  0  0  0  0
 22 21  2  0  0  0  0
 23 24  2  0  0  0  0
 23 22  1  0  0  0  0
 24 26  1  0  0  0  0
 25 24  1  0  0  0  0
 26 27  2  0  0  0  0
M  END
>  <MODEL>
5

>  <REMARK>
 VINA RESULT:      -7.8      3.120      3.762
  Name = CHEMBL4072036-182
  6 active torsions:
  status: ('A' for Active; 'I' for Inactive)
    1  A    between atoms: C_1  and  C_2
    2  A    between atoms: C_2  and  N_3
    3  A    between atoms: N_3  and  C_4
    4  A    between atoms: N_3  and  C_13
    5  A    between atoms: C_4  and  C_5
    6  A    between atoms: C_5  and  C_6
                            x       y       z     vdW  Elec       q    Type
                         _______ _______ _______ _____ _____    ______ ____

>  <TORSDO>
F 5

>  <rfscore_v2>
7.05660466450216

>  <vina_affinity>
-7.800494878477388

>  <vina_gauss1>
92.27565165030833

>  <vina_gauss2>
1111.2925370293256

>  <vina_repulsion>
1.022468156212531

>  <vina_hydrophobic>
44.84369384780085

>  <vina_hydrogen>
0.5923620745663445

>  <vina_intra_gauss1>
26.951158510609694

>  <vina_intra_gauss2>
158.03763094260614

>  <vina_intra_repulsion>
1.1902290495624939

>  <vina_intra_hydrophobic>
16.378253075282153

>  <vina_intra_hydrogen>
0.0

>  <vina_num_rotors>
5.0

>  <rfscore_v3>
7.052459989954498

>  <PLEClinear_p5_l1_s65536>
2.5641195602755738

>  <nnscore>
7.289563766423141

$$$$
CHEMBL4072036-182
 OpenBabel12202021063D

 27 29  0  0  1  0  0  0  0  0999 V2000
   -1.3900   48.6940   65.3500 C   0  0  2  0  0  3  0  0  0  0  0  0
   -0.0700   47.8880   65.4340 C   0  0  0  0  0  2  0  0  0  0  0  0
    1.1770   48.7600   65.2790 C   0  0  0  0  0  2  0  0  0  0  0  0
    1.0830   49.5700   64.0620 N   0  0  2  0  0  0  0  0  0  0  0  0
    2.1110   49.5670   63.1750 C   0  0  2  0  0  3  0  0  0  0  0  0
    3.1240   48.7330   63.0960 N   0  0  0  0  0  0  0  0  0  0  0  0
    3.8270   49.1730   62.0220 C   0  0  0  0  0  0  0  0  0  0  0  0
    4.9100   48.4980   61.6430 N   0  0  0  0  0  0  0  0  0  0  0  0
    3.3250   50.2360   61.4040 N   0  0  0  0  0  2  0  0  0  0  0  0
    2.2540   50.4900   62.1710 N   0  0  0  0  0  0  0  0  0  0  0  0
   -0.1200   50.3790   63.9240 C   0  0  0  0  0  2  0  0  0  0  0  0
   -1.3360   49.4610   64.0070 C   0  0  0  0  0  2  0  0  0  0  0  0
    4.9860   47.5520   61.9870 H   0  0  0  0  0  0  0  0  0  0  0  0
    5.2100   48.6280   60.6870 H   0  0  0  0  0  0  0  0  0  0  0  0
    1.6810   51.2960   61.9650 H   0  0  0  0  0  0  0  0  0  0  0  0
   -1.6800   49.5570   66.5410 N   0  0  0  0  0  0  0  0  0  0  0  0
   -4.0470   50.2480   67.2110 C   0  0  0  0  0  1  0  0  0  0  0  0
   -2.8430   50.4410   66.2930 C   0  0  0  0  0  2  0  0  0  0  0  0
   -1.8210   48.7860   67.8070 C   0  0  0  0  0  2  0  0  0  0  0  0
   -1.1650   49.4070   69.0610 C   0  0  0  0  0  2  0  0  0  0  0  0
   -0.0380   48.5910   69.6550 C   0  0  0  0  0  0  0  0  0  0  0  0
    0.9150   47.9860   68.8200 C   0  0  0  0  0  3  0  0  0  0  0  0
    2.0160   47.3180   69.3610 C   0  0  0  0  0  3  0  0  0  0  0  0
    2.1710   47.2430   70.7420 C   0  0  0  0  0  0  0  0  0  0  0  0
    3.5440   46.4480   71.4070 Cl  0  0  0  0  0  0  0  0  0  0  0  0
    1.2300   47.8220   71.5880 C   0  0  0  0  0  3  0  0  0  0  0  0
    0.1270   48.4960   71.0450 C   0  0  0  0  0  3  0  0  0  0  0  0
  1  2  1  0  0  0  0
  1 16  1  1  0  0  0
  3  2  1  0  0  0  0
  4 11  1  1  0  0  0
  4  3  1  0  0  0  0
  5  6  1  1  0  0  0
  5  4  1  0  0  0  0
  7  6  2  0  0  0  0
  8 13  1  0  0  0  0
  8  7  1  0  0  0  0
  9  7  1  0  0  0  0
  9 10  1  0  0  0  0
 10  5  1  0  0  0  0
 11 12  1  0  0  0  0
 12  1  1  0  0  0  0
 14  8  1  0  0  0  0
 15 10  1  0  0  0  0
 16 19  1  0  0  0  0
 18 16  1  0  0  0  0
 18 17  1  0  0  0  0
 19 20  1  0  0  0  0
 20 21  1  0  0  0  0
 21 27  1  0  0  0  0
 22 23  1  0  0  0  0
 22 21  2  0  0  0  0
 23 24  2  0  0  0  0
 24 25  1  0  0  0  0
 24 26  1  0  0  0  0
 27 26  2  0  0  0  0
M  END
>  <MODEL>
6

>  <REMARK>
 VINA RESULT:      -7.7      4.342      8.203
  Name = CHEMBL4072036-182
  6 active torsions:
  status: ('A' for Active; 'I' for Inactive)
    1  A    between atoms: C_1  and  C_2
    2  A    between atoms: C_2  and  N_3
    3  A    between atoms: N_3  and  C_4
    4  A    between atoms: N_3  and  C_13
    5  A    between atoms: C_4  and  C_5
    6  A    between atoms: C_5  and  C_6
                            x       y       z     vdW  Elec       q    Type
                         _______ _______ _______ _____ _____    ______ ____

>  <TORSDO>
F 5

>  <rfscore_v2>
7.010394092352094

>  <vina_affinity>
-7.702628369839068

>  <vina_gauss1>
88.21107043201192

>  <vina_gauss2>
1190.0036502307646

>  <vina_repulsion>
1.1722745687567555

>  <vina_hydrophobic>
47.28275963539309

>  <vina_hydrogen>
0.0

>  <vina_intra_gauss1>
24.86263469713424

>  <vina_intra_gauss2>
170.89078024017203

>  <vina_intra_repulsion>
0.4253665728246259

>  <vina_intra_hydrophobic>
14.799370702091966

>  <vina_intra_hydrogen>
0.0

>  <vina_num_rotors>
5.0

>  <rfscore_v3>
6.787722019258517

>  <PLEClinear_p5_l1_s65536>
3.7503456058320963

>  <nnscore>
7.4386100966819795

$$$$
CHEMBL4072036-182
 OpenBabel12202021063D

 27 29  0  0  1  0  0  0  0  0999 V2000
   -4.9450   48.7360   66.0550 C   0  0  2  0  0  3  0  0  0  0  0  0
   -3.6890   47.8320   66.1370 C   0  0  0  0  0  2  0  0  0  0  0  0
   -3.3720   47.3710   67.5610 C   0  0  0  0  0  2  0  0  0  0  0  0
   -3.3010   48.5230   68.4630 N   0  0  2  0  0  0  0  0  0  0  0  0
   -2.2180   48.6770   69.2660 C   0  0  2  0  0  3  0  0  0  0  0  0
   -1.0510   48.0740   69.1970 N   0  0  0  0  0  0  0  0  0  0  0  0
   -0.3400   48.6180   70.2160 C   0  0  0  0  0  0  0  0  0  0  0  0
    0.9250   48.2420   70.3890 N   0  0  0  0  0  0  0  0  0  0  0  0
   -0.9760   49.5370   70.9340 N   0  0  0  0  0  2  0  0  0  0  0  0
   -2.1770   49.5360   70.3350 N   0  0  0  0  0  0  0  0  0  0  0  0
   -4.4580   49.4060   68.4640 C   0  0  0  0  0  2  0  0  0  0  0  0
   -4.6930   49.9040   67.0400 C   0  0  0  0  0  2  0  0  0  0  0  0
    1.3690   47.8000   69.5960 H   0  0  0  0  0  0  0  0  0  0  0  0
    1.5170   48.8750   70.9080 H   0  0  0  0  0  0  0  0  0  0  0  0
   -2.9110   50.1240   70.7030 H   0  0  0  0  0  0  0  0  0  0  0  0
   -6.2490   48.0260   66.2620 N   0  0  0  0  0  0  0  0  0  0  0  0
   -8.4500   49.2870   66.5700 C   0  0  0  0  0  1  0  0  0  0  0  0
   -7.3670   48.7650   65.6300 C   0  0  0  0  0  2  0  0  0  0  0  0
   -6.2140   46.5970   65.8470 C   0  0  0  0  0  2  0  0  0  0  0  0
   -7.3680   45.7080   66.3640 C   0  0  0  0  0  2  0  0  0  0  0  0
   -7.1250   45.0820   67.7200 C   0  0  0  0  0  0  0  0  0  0  0  0
   -8.1870   44.5070   68.4350 C   0  0  0  0  0  3  0  0  0  0  0  0
   -7.9570   43.8360   69.6380 C   0  0  0  0  0  3  0  0  0  0  0  0
   -6.6620   43.7380   70.1400 C   0  0  0  0  0  0  0  0  0  0  0  0
   -6.3740   42.8840   71.6050 Cl  0  0  0  0  0  0  0  0  0  0  0  0
   -5.5970   44.3140   69.4540 C   0  0  0  0  0  3  0  0  0  0  0  0
   -5.8280   44.9840   68.2450 C   0  0  0  0  0  3  0  0  0  0  0  0
  1  2  1  0  0  0  0
  1 16  1  1  0  0  0
  1 12  1  0  0  0  0
  2  3  1  0  0  0  0
  4  3  1  1  0  0  0
  4 11  1  0  0  0  0
  4  5  1  0  0  0  0
  5  6  1  1  0  0  0
  5 10  1  0  0  0  0
  6  7  2  0  0  0  0
  7  8  1  0  0  0  0
  7  9  1  0  0  0  0
  8 14  1  0  0  0  0
 10 15  1  0  0  0  0
 10  9  1  0  0  0  0
 12 11  1  0  0  0  0
 13  8  1  0  0  0  0
 18 16  1  0  0  0  0
 18 17  1  0  0  0  0
 19 16  1  0  0  0  0
 19 20  1  0  0  0  0
 20 21  1  0  0  0  0
 21 27  2  0  0  0  0
 21 22  1  0  0  0  0
 22 23  2  0  0  0  0
 23 24  1  0  0  0  0
 24 25  1  0  0  0  0
 26 24  2  0  0  0  0
 27 26  1  0  0  0  0
M  END
>  <MODEL>
7

>  <REMARK>
 VINA RESULT:      -7.5      5.789      8.410
  Name = CHEMBL4072036-182
  6 active torsions:
  status: ('A' for Active; 'I' for Inactive)
    1  A    between atoms: C_1  and  C_2
    2  A    between atoms: C_2  and  N_3
    3  A    between atoms: N_3  and  C_4
    4  A    between atoms: N_3  and  C_13
    5  A    between atoms: C_4  and  C_5
    6  A    between atoms: C_5  and  C_6
                            x       y       z     vdW  Elec       q    Type
                         _______ _______ _______ _____ _____    ______ ____

>  <TORSDO>
F 5

>  <rfscore_v2>
6.812204461760464

>  <vina_affinity>
-7.0662434876473

>  <vina_gauss1>
68.03717504050339

>  <vina_gauss2>
1047.9622520601774

>  <vina_repulsion>
0.9077074642463748

>  <vina_hydrophobic>
43.19415018044427

>  <vina_hydrogen>
0.9367472816781282

>  <vina_intra_gauss1>
26.377550962099974

>  <vina_intra_gauss2>
196.67034042341535

>  <vina_intra_repulsion>
0.5066606817091784

>  <vina_intra_hydrophobic>
13.989029375158227

>  <vina_intra_hydrogen>
0.0

>  <vina_num_rotors>
5.0

>  <rfscore_v3>
6.658036570667903

>  <PLEClinear_p5_l1_s65536>
2.203441943935737

>  <nnscore>
7.353307668742529

$$$$
CHEMBL4072036-182
 OpenBabel12202021063D

 27 29  0  0  1  0  0  0  0  0999 V2000
   -1.1030   49.4160   68.8480 C   0  0  2  0  0  3  0  0  0  0  0  0
   -2.6440   49.5300   68.7420 C   0  0  0  0  0  2  0  0  0  0  0  0
   -3.1740   49.2190   67.3410 C   0  0  0  0  0  2  0  0  0  0  0  0
   -2.4760   50.0310   66.3420 N   0  0  2  0  0  0  0  0  0  0  0  0
   -3.1950   50.7510   65.4440 C   0  0  2  0  0  3  0  0  0  0  0  0
   -4.4740   51.0540   65.4690 N   0  0  0  0  0  0  0  0  0  0  0  0
   -4.6560   51.8030   64.3530 C   0  0  0  0  0  0  0  0  0  0  0  0
   -5.8620   52.3130   64.1110 N   0  0  0  0  0  0  0  0  0  0  0  0
   -3.5710   52.0060   63.6150 N   0  0  0  0  0  2  0  0  0  0  0  0
   -2.6610   51.3030   64.3060 N   0  0  0  0  0  0  0  0  0  0  0  0
   -1.0220   49.9560   66.3610 C   0  0  0  0  0  2  0  0  0  0  0  0
   -0.5310   50.3470   67.7510 C   0  0  0  0  0  2  0  0  0  0  0  0
   -6.4910   52.3570   64.9010 H   0  0  0  0  0  0  0  0  0  0  0  0
   -5.8980   53.1130   63.4950 H   0  0  0  0  0  0  0  0  0  0  0  0
   -1.7190   51.2320   63.9510 H   0  0  0  0  0  0  0  0  0  0  0  0
   -0.5690   48.0160   68.8080 N   0  0  0  0  0  0  0  0  0  0  0  0
    1.5520   47.6450   70.1850 C   0  0  0  0  0  1  0  0  0  0  0  0
    0.9130   48.0060   68.8470 C   0  0  0  0  0  2  0  0  0  0  0  0
   -1.1630   47.1280   69.8450 C   0  0  0  0  0  2  0  0  0  0  0  0
   -1.7390   45.7840   69.3450 C   0  0  0  0  0  2  0  0  0  0  0  0
   -2.6770   45.0990   70.3140 C   0  0  0  0  0  0  0  0  0  0  0  0
   -2.2850   44.8790   71.6440 C   0  0  0  0  0  3  0  0  0  0  0  0
   -3.1790   44.3420   72.5730 C   0  0  0  0  0  3  0  0  0  0  0  0
   -4.4720   44.0130   72.1770 C   0  0  0  0  0  0  0  0  0  0  0  0
   -5.5840   43.3800   73.3280 Cl  0  0  0  0  0  0  0  0  0  0  0  0
   -4.8770   44.2080   70.8600 C   0  0  0  0  0  3  0  0  0  0  0  0
   -3.9810   44.7500   69.9300 C   0  0  0  0  0  3  0  0  0  0  0  0
  1 16  1  6  0  0  0
  2  1  1  0  0  0  0
  3  2  1  0  0  0  0
  4 11  1  6  0  0  0
  4  3  1  0  0  0  0
  5  6  1  6  0  0  0
  5  4  1  0  0  0  0
  7  6  2  0  0  0  0
  8  7  1  0  0  0  0
  8 13  1  0  0  0  0
  9 10  1  0  0  0  0
  9  7  1  0  0  0  0
 10  5  1  0  0  0  0
 11 12  1  0  0  0  0
 12  1  1  0  0  0  0
 14  8  1  0  0  0  0
 15 10  1  0  0  0  0
 16 18  1  0  0  0  0
 16 19  1  0  0  0  0
 18 17  1  0  0  0  0
 20 19  1  0  0  0  0
 20 21  1  0  0  0  0
 21 22  1  0  0  0  0
 22 23  2  0  0  0  0
 24 23  1  0  0  0  0
 24 25  1  0  0  0  0
 26 24  2  0  0  0  0
 27 21  2  0  0  0  0
 27 26  1  0  0  0  0
M  END
>  <MODEL>
8

>  <REMARK>
 VINA RESULT:      -7.5      5.084      8.973
  Name = CHEMBL4072036-182
  6 active torsions:
  status: ('A' for Active; 'I' for Inactive)
    1  A    between atoms: C_1  and  C_2
    2  A    between atoms: C_2  and  N_3
    3  A    between atoms: N_3  and  C_4
    4  A    between atoms: N_3  and  C_13
    5  A    between atoms: C_4  and  C_5
    6  A    between atoms: C_5  and  C_6
                            x       y       z     vdW  Elec       q    Type
                         _______ _______ _______ _____ _____    ______ ____

>  <TORSDO>
F 5

>  <rfscore_v2>
7.2907209777999675

>  <vina_affinity>
-7.485064688547054

>  <vina_gauss1>
66.93053123891283

>  <vina_gauss2>
1200.9362194390599

>  <vina_repulsion>
0.5447637949310531

>  <vina_hydrophobic>
34.127902632508224

>  <vina_hydrogen>
0.6040894563496879

>  <vina_intra_gauss1>
19.04354593709642

>  <vina_intra_gauss2>
151.6558839992412

>  <vina_intra_repulsion>
0.0180551587973286

>  <vina_intra_hydrophobic>
11.954251780276874

>  <vina_intra_hydrogen>
0.0

>  <vina_num_rotors>
5.0

>  <rfscore_v3>
6.811460410550235

>  <PLEClinear_p5_l1_s65536>
1.537438130759179

>  <nnscore>
6.714300927157626

$$$$
CHEMBL4072036-182
 OpenBabel12202021063D

 27 29  0  0  1  0  0  0  0  0999 V2000
   -1.0240   48.7040   69.1590 C   0  0  2  0  0  3  0  0  0  0  0  0
   -0.8380   48.4670   70.6780 C   0  0  0  0  0  2  0  0  0  0  0  0
   -0.6260   46.9950   71.0350 C   0  0  0  0  0  2  0  0  0  0  0  0
   -1.6930   46.1730   70.4590 N   0  0  2  0  0  0  0  0  0  0  0  0
   -2.3710   45.3060   71.2530 C   0  0  2  0  0  3  0  0  0  0  0  0
   -2.4030   45.2470   72.5660 N   0  0  0  0  0  0  0  0  0  0  0  0
   -3.2490   44.2190   72.8280 C   0  0  0  0  0  0  0  0  0  0  0  0
   -3.5340   43.9280   74.0950 N   0  0  0  0  0  0  0  0  0  0  0  0
   -3.7670   43.6170   71.7630 N   0  0  0  0  0  2  0  0  0  0  0  0
   -3.1720   44.3000   70.7730 N   0  0  0  0  0  0  0  0  0  0  0  0
   -1.9100   46.3200   69.0280 C   0  0  0  0  0  2  0  0  0  0  0  0
   -2.1950   47.7890   68.7250 C   0  0  0  0  0  2  0  0  0  0  0  0
   -3.3390   44.6530   74.7710 H   0  0  0  0  0  0  0  0  0  0  0  0
   -4.3870   43.4130   74.2590 H   0  0  0  0  0  0  0  0  0  0  0  0
   -3.3430   44.0300   69.8160 H   0  0  0  0  0  0  0  0  0  0  0  0
    0.2200   48.5440   68.3380 N   0  0  0  0  0  0  0  0  0  0  0  0
    1.8930   46.6170   68.4750 C   0  0  0  0  0  1  0  0  0  0  0  0
    0.5070   47.1140   68.0740 C   0  0  0  0  0  2  0  0  0  0  0  0
    0.2110   49.3540   67.0890 C   0  0  0  0  0  2  0  0  0  0  0  0
   -0.1950   48.6110   65.7960 C   0  0  0  0  0  2  0  0  0  0  0  0
    0.8830   48.5530   64.7350 C   0  0  0  0  0  0  0  0  0  0  0  0
    1.1770   49.6870   63.9620 C   0  0  0  0  0  3  0  0  0  0  0  0
    2.2380   49.6760   63.0530 C   0  0  0  0  0  3  0  0  0  0  0  0
    3.0100   48.5280   62.9050 C   0  0  0  0  0  0  0  0  0  0  0  0
    4.3360   48.5240   61.8090 Cl  0  0  0  0  0  0  0  0  0  0  0  0
    2.7260   47.3880   63.6510 C   0  0  0  0  0  3  0  0  0  0  0  0
    1.6640   47.4000   64.5650 C   0  0  0  0  0  3  0  0  0  0  0  0
  1 16  1  6  0  0  0
  1  2  1  0  0  0  0
  2  3  1  0  0  0  0
  4 11  1  6  0  0  0
  4  3  1  0  0  0  0
  4  5  1  0  0  0  0
  5  6  1  6  0  0  0
  6  7  2  0  0  0  0
  7  8  1  0  0  0  0
  8 14  1  0  0  0  0
  8 13  1  0  0  0  0
  9  7  1  0  0  0  0
 10  5  1  0  0  0  0
 10  9  1  0  0  0  0
 12 11  1  0  0  0  0
 12  1  1  0  0  0  0
 15 10  1  0  0  0  0
 18 16  1  0  0  0  0
 18 17  1  0  0  0  0
 19 16  1  0  0  0  0
 20 19  1  0  0  0  0
 21 20  1  0  0  0  0
 22 21  2  0  0  0  0
 23 22  1  0  0  0  0
 24 23  2  0  0  0  0
 24 26  1  0  0  0  0
 25 24  1  0  0  0  0
 26 27  2  0  0  0  0
 27 21  1  0  0  0  0
M  END
>  <MODEL>
9

>  <REMARK>
 VINA RESULT:      -7.4      1.433      2.078
  Name = CHEMBL4072036-182
  6 active torsions:
  status: ('A' for Active; 'I' for Inactive)
    1  A    between atoms: C_1  and  C_2
    2  A    between atoms: C_2  and  N_3
    3  A    between atoms: N_3  and  C_4
    4  A    between atoms: N_3  and  C_13
    5  A    between atoms: C_4  and  C_5
    6  A    between atoms: C_5  and  C_6
                            x       y       z     vdW  Elec       q    Type
                         _______ _______ _______ _____ _____    ______ ____

>  <TORSDO>
F 5

>  <rfscore_v2>
7.505960510878008

>  <vina_affinity>
-7.9741672089194

>  <vina_gauss1>
84.05620021065762

>  <vina_gauss2>
1281.6528323668858

>  <vina_repulsion>
1.8712890689451294

>  <vina_hydrophobic>
43.83512103620171

>  <vina_hydrogen>
1.2506845733543612

>  <vina_intra_gauss1>
29.858306500885377

>  <vina_intra_gauss2>
145.0897732436643

>  <vina_intra_repulsion>
3.5211174819949225

>  <vina_intra_hydrophobic>
15.128515883542937

>  <vina_intra_hydrogen>
0.0

>  <vina_num_rotors>
5.0

>  <rfscore_v3>
7.303281794538799

>  <PLEClinear_p5_l1_s65536>
3.8670412511556185

>  <nnscore>
6.940426449578794

$$$$
