CHEMBL1215474-700
 OpenBabel12202021053D

 24 27  0  0  0  0  0  0  0  0999 V2000
   -4.9870   46.5640   66.7200 C   0  0  0  0  0  2  0  0  0  0  0  0
   -5.6380   47.8770   66.8120 N   0  0  0  0  0  0  0  0  0  0  0  0
   -5.3540   48.8350   65.7420 C   0  0  0  0  0  2  0  0  0  0  0  0
   -4.2550   49.8980   66.0120 C   0  0  0  0  0  2  0  0  0  0  0  0
   -4.3650   50.5530   67.3350 N   0  0  0  0  0  0  0  0  0  0  0  0
   -3.2430   51.3810   67.6280 C   0  0  0  0  0  0  0  0  0  0  0  0
   -3.3220   52.3250   68.6630 C   0  0  0  0  0  3  0  0  0  0  0  0
   -2.2250   53.1320   68.9850 C   0  0  0  0  0  3  0  0  0  0  0  0
   -1.0530   52.9790   68.2620 C   0  0  0  0  0  3  0  0  0  0  0  0
   -1.0580   52.0510   67.2370 C   0  0  0  0  0  3  0  0  0  0  0  0
   -2.1060   51.2640   66.9110 N   0  0  0  0  0  0  0  0  0  0  0  0
   -4.6510   49.6350   68.4570 C   0  0  0  0  0  2  0  0  0  0  0  0
   -5.6990   48.5400   68.1180 C   0  0  0  0  0  2  0  0  0  0  0  0
   -2.6780   46.0820   68.9570 C   0  0  0  0  0  1  0  0  0  0  0  0
   -4.0890   45.6260   68.9710 C   0  0  0  0  0  0  0  0  0  0  0  0
   -4.5610   44.8860   70.0210 N   0  0  0  0  0  0  0  0  0  0  0  0
   -5.8710   44.5450   69.8260 C   0  0  0  0  0  0  0  0  0  0  0  0
   -6.7150   43.7930   70.6610 C   0  0  0  0  0  3  0  0  0  0  0  0
   -8.0140   43.5400   70.2290 C   0  0  0  0  0  3  0  0  0  0  0  0
   -8.4380   44.0240   68.9920 C   0  0  0  0  0  3  0  0  0  0  0  0
   -7.5790   44.7820   68.1660 C   0  0  0  0  0  3  0  0  0  0  0  0
   -6.2580   45.0730   68.5890 C   0  0  0  0  0  0  0  0  0  0  0  0
   -5.1200   45.8080   68.0490 C   0  0  0  0  0  0  0  0  0  0  0  0
   -4.0200   44.6100   70.8290 H   0  0  0  0  0  0  0  0  0  0  0  0
  1  2  1  0  0  0  0
  1 23  1  0  0  0  0
  2 13  1  0  0  0  0
  3  4  1  0  0  0  0
  3  2  1  0  0  0  0
  4  5  1  0  0  0  0
  5  6  1  0  0  0  0
  5 12  1  0  0  0  0
  6  7  1  0  0  0  0
  7  8  2  0  0  0  0
  9  8  1  0  0  0  0
 10  9  2  0  0  0  0
 11 10  1  0  0  0  0
 11  6  2  0  0  0  0
 13 12  1  0  0  0  0
 14 15  1  0  0  0  0
 15 16  1  0  0  0  0
 16 24  1  0  0  0  0
 17 16  1  0  0  0  0
 17 18  1  0  0  0  0
 19 18  2  0  0  0  0
 20 19  1  0  0  0  0
 21 22  1  0  0  0  0
 21 20  2  0  0  0  0
 22 17  2  0  0  0  0
 23 22  1  0  0  0  0
 23 15  2  0  0  0  0
M  END
>  <MODEL>
1

>  <REMARK>
 VINA RESULT:      -8.7      0.000      0.000
  Name = CHEMBL1215474-700
  3 active torsions:
  status: ('A' for Active; 'I' for Inactive)
    1  A    between atoms: C_1  and  C_2
    2  A    between atoms: C_10  and  C_11
    3  A    between atoms: C_11  and  N_12
                            x       y       z     vdW  Elec       q    Type
                         _______ _______ _______ _____ _____    ______ ____

>  <TORSDO>
F 2

>  <rfscore_v2>
6.771458325396825

>  <vina_affinity>
-8.162715230194948

>  <vina_gauss1>
79.71848254724418

>  <vina_gauss2>
1017.1772117168176

>  <vina_repulsion>
0.7018842096750157

>  <vina_hydrophobic>
59.778977153290725

>  <vina_hydrogen>
0.0

>  <vina_intra_gauss1>
22.91038975047188

>  <vina_intra_gauss2>
150.4963293554336

>  <vina_intra_repulsion>
0.39580095445917757

>  <vina_intra_hydrophobic>
3.0489071381671025

>  <vina_intra_hydrogen>
0.0

>  <vina_num_rotors>
3.0

>  <rfscore_v3>
6.2259189155289185

>  <PLEClinear_p5_l1_s65536>
1.788233118746736

>  <nnscore>
6.302465134510385

$$$$
CHEMBL1215474-700
 OpenBabel12202021053D

 24 27  0  0  0  0  0  0  0  0999 V2000
   -4.1490   48.8570   66.3120 C   0  0  0  0  0  2  0  0  0  0  0  0
   -3.4920   49.8020   67.2230 N   0  0  0  0  0  0  0  0  0  0  0  0
   -2.1810   50.3130   66.8180 C   0  0  0  0  0  2  0  0  0  0  0  0
   -0.9300   49.6130   67.4150 C   0  0  0  0  0  2  0  0  0  0  0  0
   -1.0130   49.3780   68.8750 N   0  0  0  0  0  0  0  0  0  0  0  0
    0.0600   48.5740   69.3570 C   0  0  0  0  0  0  0  0  0  0  0  0
    0.3320   48.5240   70.7330 C   0  0  0  0  0  3  0  0  0  0  0  0
    1.3630   47.7220   71.2340 C   0  0  0  0  0  3  0  0  0  0  0  0
    2.1120   46.9710   70.3420 C   0  0  0  0  0  3  0  0  0  0  0  0
    1.8080   47.0940   68.9990 C   0  0  0  0  0  3  0  0  0  0  0  0
    0.8170   47.8620   68.4970 N   0  0  0  0  0  0  0  0  0  0  0  0
   -2.3140   48.8610   69.3440 C   0  0  0  0  0  2  0  0  0  0  0  0
   -3.5370   49.5340   68.6640 C   0  0  0  0  0  2  0  0  0  0  0  0
   -7.2010   49.9610   66.4980 C   0  0  0  0  0  1  0  0  0  0  0  0
   -6.6330   48.7120   67.0610 C   0  0  0  0  0  0  0  0  0  0  0  0
   -7.4270   47.8600   67.7800 N   0  0  0  0  0  0  0  0  0  0  0  0
   -6.7060   46.7890   68.2320 C   0  0  0  0  0  0  0  0  0  0  0  0
   -7.1450   45.6990   69.0030 C   0  0  0  0  0  3  0  0  0  0  0  0
   -6.2110   44.7380   69.3780 C   0  0  0  0  0  3  0  0  0  0  0  0
   -4.8780   44.8820   68.9920 C   0  0  0  0  0  3  0  0  0  0  0  0
   -4.4540   45.9810   68.2130 C   0  0  0  0  0  3  0  0  0  0  0  0
   -5.3870   46.9640   67.7990 C   0  0  0  0  0  0  0  0  0  0  0  0
   -5.3420   48.1860   67.0070 C   0  0  0  0  0  0  0  0  0  0  0  0
   -8.4090   48.0020   67.9720 H   0  0  0  0  0  0  0  0  0  0  0  0
  1 23  1  0  0  0  0
  1  2  1  0  0  0  0
  2 13  1  0  0  0  0
  3  2  1  0  0  0  0
  3  4  1  0  0  0  0
  4  5  1  0  0  0  0
  5 12  1  0  0  0  0
  5  6  1  0  0  0  0
  6  7  1  0  0  0  0
  7  8  2  0  0  0  0
  9  8  1  0  0  0  0
 10  9  2  0  0  0  0
 11 10  1  0  0  0  0
 11  6  2  0  0  0  0
 13 12  1  0  0  0  0
 14 15  1  0  0  0  0
 15 16  1  0  0  0  0
 16 24  1  0  0  0  0
 16 17  1  0  0  0  0
 17 18  1  0  0  0  0
 18 19  2  0  0  0  0
 20 19  1  0  0  0  0
 21 20  2  0  0  0  0
 22 21  1  0  0  0  0
 22 17  2  0  0  0  0
 23 15  2  0  0  0  0
 23 22  1  0  0  0  0
M  END
>  <MODEL>
2

>  <REMARK>
 VINA RESULT:      -8.6      2.757      4.267
  Name = CHEMBL1215474-700
  3 active torsions:
  status: ('A' for Active; 'I' for Inactive)
    1  A    between atoms: C_1  and  C_2
    2  A    between atoms: C_10  and  C_11
    3  A    between atoms: C_11  and  N_12
                            x       y       z     vdW  Elec       q    Type
                         _______ _______ _______ _____ _____    ______ ____

>  <TORSDO>
F 2

>  <rfscore_v2>
6.673259068875569

>  <vina_affinity>
-8.192058344535756

>  <vina_gauss1>
72.05882304837709

>  <vina_gauss2>
1088.0666020502886

>  <vina_repulsion>
0.3767769556949664

>  <vina_hydrophobic>
50.328759535152116

>  <vina_hydrogen>
0.0

>  <vina_intra_gauss1>
24.139360807906762

>  <vina_intra_gauss2>
171.50350808554472

>  <vina_intra_repulsion>
0.6545067641307653

>  <vina_intra_hydrophobic>
3.0499850664093504

>  <vina_intra_hydrogen>
0.0

>  <vina_num_rotors>
3.0

>  <rfscore_v3>
6.374143208458212

>  <PLEClinear_p5_l1_s65536>
1.3170937636096967

>  <nnscore>
6.656418021037385

$$$$
CHEMBL1215474-700
 OpenBabel12202021053D

 24 27  0  0  0  0  0  0  0  0999 V2000
   -0.9160   50.7710   66.5060 C   0  0  0  0  0  2  0  0  0  0  0  0
   -1.6320   49.8820   65.5840 N   0  0  0  0  0  0  0  0  0  0  0  0
   -2.9960   50.2650   65.2160 C   0  0  0  0  0  2  0  0  0  0  0  0
   -4.1590   49.5980   66.0000 C   0  0  0  0  0  2  0  0  0  0  0  0
   -4.0130   48.1330   66.1580 N   0  0  0  0  0  0  0  0  0  0  0  0
   -4.9910   47.5800   67.0350 C   0  0  0  0  0  0  0  0  0  0  0  0
   -5.2180   46.1960   67.0460 C   0  0  0  0  0  3  0  0  0  0  0  0
   -6.1550   45.6270   67.9160 C   0  0  0  0  0  3  0  0  0  0  0  0
   -6.8540   46.4600   68.7740 C   0  0  0  0  0  3  0  0  0  0  0  0
   -6.6010   47.8160   68.6860 C   0  0  0  0  0  3  0  0  0  0  0  0
   -5.7010   48.3830   67.8540 N   0  0  0  0  0  0  0  0  0  0  0  0
   -2.6560   47.6840   66.5310 C   0  0  0  0  0  2  0  0  0  0  0  0
   -1.5210   48.4320   65.7790 C   0  0  0  0  0  2  0  0  0  0  0  0
   -3.0480   51.7930   68.7380 C   0  0  0  0  0  1  0  0  0  0  0  0
   -1.9960   50.7560   68.8700 C   0  0  0  0  0  0  0  0  0  0  0  0
   -1.8220   50.1030   70.0590 N   0  0  0  0  0  0  0  0  0  0  0  0
   -0.7860   49.2120   69.9790 C   0  0  0  0  0  0  0  0  0  0  0  0
   -0.2880   48.3540   70.9730 C   0  0  0  0  0  3  0  0  0  0  0  0
    0.8100   47.5560   70.6660 C   0  0  0  0  0  3  0  0  0  0  0  0
    1.3860   47.6320   69.3980 C   0  0  0  0  0  3  0  0  0  0  0  0
    0.8710   48.4960   68.4080 C   0  0  0  0  0  3  0  0  0  0  0  0
   -0.2590   49.3060   68.6860 C   0  0  0  0  0  0  0  0  0  0  0  0
   -1.0630   50.2740   67.9510 C   0  0  0  0  0  0  0  0  0  0  0  0
   -2.3670   50.2610   70.8960 H   0  0  0  0  0  0  0  0  0  0  0  0
  1 23  1  0  0  0  0
  2 13  1  0  0  0  0
  2  1  1  0  0  0  0
  3  2  1  0  0  0  0
  3  4  1  0  0  0  0
  4  5  1  0  0  0  0
  5 12  1  0  0  0  0
  5  6  1  0  0  0  0
  6  7  2  0  0  0  0
  6 11  1  0  0  0  0
  7  8  1  0  0  0  0
  8  9  2  0  0  0  0
 10  9  1  0  0  0  0
 11 10  2  0  0  0  0
 13 12  1  0  0  0  0
 14 15  1  0  0  0  0
 15 16  1  0  0  0  0
 16 24  1  0  0  0  0
 17 16  1  0  0  0  0
 17 18  1  0  0  0  0
 19 18  2  0  0  0  0
 20 19  1  0  0  0  0
 21 22  1  0  0  0  0
 21 20  2  0  0  0  0
 22 17  2  0  0  0  0
 23 22  1  0  0  0  0
 23 15  2  0  0  0  0
M  END
>  <MODEL>
3

>  <REMARK>
 VINA RESULT:      -8.5      2.538      6.518
  Name = CHEMBL1215474-700
  3 active torsions:
  status: ('A' for Active; 'I' for Inactive)
    1  A    between atoms: C_1  and  C_2
    2  A    between atoms: C_10  and  C_11
    3  A    between atoms: C_11  and  N_12
                            x       y       z     vdW  Elec       q    Type
                         _______ _______ _______ _____ _____    ______ ____

>  <TORSDO>
F 2

>  <rfscore_v2>
6.8469306273171275

>  <vina_affinity>
-8.050782680210101

>  <vina_gauss1>
70.26553652090796

>  <vina_gauss2>
1065.735561165993

>  <vina_repulsion>
0.8528474357438207

>  <vina_hydrophobic>
52.24102393966383

>  <vina_hydrogen>
0.5890602224339643

>  <vina_intra_gauss1>
36.24477401002086

>  <vina_intra_gauss2>
190.23366141184107

>  <vina_intra_repulsion>
1.1553713089712057

>  <vina_intra_hydrophobic>
3.0486769974543186

>  <vina_intra_hydrogen>
0.0

>  <vina_num_rotors>
3.0

>  <rfscore_v3>
6.375198929792432

>  <PLEClinear_p5_l1_s65536>
2.272621950896161

>  <nnscore>
6.546313492257473

$$$$
CHEMBL1215474-700
 OpenBabel12202021053D

 24 27  0  0  0  0  0  0  0  0999 V2000
   -4.8240   46.7690   66.8420 C   0  0  0  0  0  2  0  0  0  0  0  0
   -5.4640   48.0890   66.8990 N   0  0  0  0  0  0  0  0  0  0  0  0
   -5.1610   49.0210   65.8120 C   0  0  0  0  0  2  0  0  0  0  0  0
   -4.0540   50.0800   66.0700 C   0  0  0  0  0  2  0  0  0  0  0  0
   -4.1730   50.7650   67.3770 N   0  0  0  0  0  0  0  0  0  0  0  0
   -3.0460   51.5890   67.6630 C   0  0  0  0  0  0  0  0  0  0  0  0
   -3.1280   52.5560   68.6770 C   0  0  0  0  0  3  0  0  0  0  0  0
   -2.0270   53.3610   68.9930 C   0  0  0  0  0  3  0  0  0  0  0  0
   -0.8490   53.1820   68.2860 C   0  0  0  0  0  3  0  0  0  0  0  0
   -0.8520   52.2320   67.2810 C   0  0  0  0  0  3  0  0  0  0  0  0
   -1.9030   51.4470   66.9620 N   0  0  0  0  0  0  0  0  0  0  0  0
   -4.4780   49.8740   68.5150 C   0  0  0  0  0  2  0  0  0  0  0  0
   -5.5320   48.7810   68.1900 C   0  0  0  0  0  2  0  0  0  0  0  0
   -7.8060   45.8270   65.9520 C   0  0  0  0  0  1  0  0  0  0  0  0
   -6.9900   45.3560   67.0970 C   0  0  0  0  0  0  0  0  0  0  0  0
   -7.4880   44.4100   67.9510 N   0  0  0  0  0  0  0  0  0  0  0  0
   -6.5950   44.1380   68.9510 C   0  0  0  0  0  0  0  0  0  0  0  0
   -6.7240   43.2360   70.0200 C   0  0  0  0  0  3  0  0  0  0  0  0
   -5.6860   43.1570   70.9450 C   0  0  0  0  0  3  0  0  0  0  0  0
   -4.5620   43.9690   70.7930 C   0  0  0  0  0  3  0  0  0  0  0  0
   -4.4460   44.8670   69.7100 C   0  0  0  0  0  3  0  0  0  0  0  0
   -5.4780   44.9540   68.7420 C   0  0  0  0  0  0  0  0  0  0  0  0
   -5.7100   45.7160   67.5210 C   0  0  0  0  0  0  0  0  0  0  0  0
   -8.3980   43.9770   67.8740 H   0  0  0  0  0  0  0  0  0  0  0  0
  1  2  1  0  0  0  0
  1 23  1  0  0  0  0
  2 13  1  0  0  0  0
  3  4  1  0  0  0  0
  3  2  1  0  0  0  0
  4  5  1  0  0  0  0
  5  6  1  0  0  0  0
  5 12  1  0  0  0  0
  6  7  1  0  0  0  0
  7  8  2  0  0  0  0
  9  8  1  0  0  0  0
 10  9  2  0  0  0  0
 11 10  1  0  0  0  0
 11  6  2  0  0  0  0
 13 12  1  0  0  0  0
 14 15  1  0  0  0  0
 15 23  2  0  0  0  0
 15 16  1  0  0  0  0
 16 17  1  0  0  0  0
 17 18  1  0  0  0  0
 18 19  2  0  0  0  0
 20 19  1  0  0  0  0
 21 20  2  0  0  0  0
 22 17  2  0  0  0  0
 22 21  1  0  0  0  0
 23 22  1  0  0  0  0
 24 16  1  0  0  0  0
M  END
>  <MODEL>
4

>  <REMARK>
 VINA RESULT:      -8.4      1.162      2.102
  Name = CHEMBL1215474-700
  3 active torsions:
  status: ('A' for Active; 'I' for Inactive)
    1  A    between atoms: C_1  and  C_2
    2  A    between atoms: C_10  and  C_11
    3  A    between atoms: C_11  and  N_12
                            x       y       z     vdW  Elec       q    Type
                         _______ _______ _______ _____ _____    ______ ____

>  <TORSDO>
F 2

>  <rfscore_v2>
6.648444742424242

>  <vina_affinity>
-7.986417348687373

>  <vina_gauss1>
80.76247782540489

>  <vina_gauss2>
1012.1071121171312

>  <vina_repulsion>
0.7641093273720495

>  <vina_hydrophobic>
55.050385164265435

>  <vina_hydrogen>
0.0

>  <vina_intra_gauss1>
17.641334927548154

>  <vina_intra_gauss2>
134.9371401319856

>  <vina_intra_repulsion>
0.19104610692771062

>  <vina_intra_hydrophobic>
3.0508565969610544

>  <vina_intra_hydrogen>
0.0

>  <vina_num_rotors>
3.0

>  <rfscore_v3>
6.290964658674664

>  <PLEClinear_p5_l1_s65536>
2.1541331876167122

>  <nnscore>
6.348624287321598

$$$$
CHEMBL1215474-700
 OpenBabel12202021053D

 24 27  0  0  0  0  0  0  0  0999 V2000
   -1.8510   49.7360   67.8410 C   0  0  0  0  0  2  0  0  0  0  0  0
   -2.9420   49.1010   68.5900 N   0  0  0  0  0  0  0  0  0  0  0  0
   -3.2720   47.7180   68.2390 C   0  0  0  0  0  2  0  0  0  0  0  0
   -4.4570   47.4950   67.2610 C   0  0  0  0  0  2  0  0  0  0  0  0
   -5.6620   48.2910   67.5880 N   0  0  0  0  0  0  0  0  0  0  0  0
   -6.6600   48.2070   66.5740 C   0  0  0  0  0  0  0  0  0  0  0  0
   -7.9740   48.6120   66.8520 C   0  0  0  0  0  3  0  0  0  0  0  0
   -8.9660   48.5630   65.8650 C   0  0  0  0  0  3  0  0  0  0  0  0
   -8.6240   48.1080   64.6020 C   0  0  0  0  0  3  0  0  0  0  0  0
   -7.3180   47.6970   64.4100 C   0  0  0  0  0  3  0  0  0  0  0  0
   -6.3470   47.7370   65.3490 N   0  0  0  0  0  0  0  0  0  0  0  0
   -5.3940   49.6970   67.9490 C   0  0  0  0  0  2  0  0  0  0  0  0
   -4.1520   49.8820   68.8640 C   0  0  0  0  0  2  0  0  0  0  0  0
   -0.3310   48.3280   65.3350 C   0  0  0  0  0  1  0  0  0  0  0  0
    0.0160   48.2740   66.7760 C   0  0  0  0  0  0  0  0  0  0  0  0
    1.0950   47.5460   67.1950 N   0  0  0  0  0  0  0  0  0  0  0  0
    1.2230   47.6040   68.5560 C   0  0  0  0  0  0  0  0  0  0  0  0
    2.1910   46.9960   69.3730 C   0  0  0  0  0  3  0  0  0  0  0  0
    2.0940   47.1690   70.7510 C   0  0  0  0  0  3  0  0  0  0  0  0
    1.0480   47.9230   71.2810 C   0  0  0  0  0  3  0  0  0  0  0  0
    0.0840   48.5310   70.4460 C   0  0  0  0  0  3  0  0  0  0  0  0
    0.1700   48.3900   69.0380 C   0  0  0  0  0  0  0  0  0  0  0  0
   -0.5910   48.8600   67.8870 C   0  0  0  0  0  0  0  0  0  0  0  0
    1.7130   47.0190   66.5920 H   0  0  0  0  0  0  0  0  0  0  0  0
  1 23  1  0  0  0  0
  1  2  1  0  0  0  0
  2 13  1  0  0  0  0
  3  2  1  0  0  0  0
  4  5  1  0  0  0  0
  4  3  1  0  0  0  0
  5 12  1  0  0  0  0
  6  7  1  0  0  0  0
  6  5  1  0  0  0  0
  8  7  2  0  0  0  0
  9  8  1  0  0  0  0
 10  9  2  0  0  0  0
 10 11  1  0  0  0  0
 11  6  2  0  0  0  0
 12 13  1  0  0  0  0
 14 15  1  0  0  0  0
 15 16  1  0  0  0  0
 15 23  2  0  0  0  0
 16 17  1  0  0  0  0
 17 22  2  0  0  0  0
 17 18  1  0  0  0  0
 18 19  2  0  0  0  0
 19 20  1  0  0  0  0
 21 20  2  0  0  0  0
 22 21  1  0  0  0  0
 23 22  1  0  0  0  0
 24 16  1  0  0  0  0
M  END
>  <MODEL>
5

>  <REMARK>
 VINA RESULT:      -8.1      3.313      6.705
  Name = CHEMBL1215474-700
  3 active torsions:
  status: ('A' for Active; 'I' for Inactive)
    1  A    between atoms: C_1  and  C_2
    2  A    between atoms: C_10  and  C_11
    3  A    between atoms: C_11  and  N_12
                            x       y       z     vdW  Elec       q    Type
                         _______ _______ _______ _____ _____    ______ ____

>  <TORSDO>
F 2

>  <rfscore_v2>
6.70109946570097

>  <vina_affinity>
-7.70003685691617

>  <vina_gauss1>
61.776789552091195

>  <vina_gauss2>
1099.1043070744959

>  <vina_repulsion>
0.37079363851775143

>  <vina_hydrophobic>
42.51361963250783

>  <vina_hydrogen>
0.0

>  <vina_intra_gauss1>
19.22492403805228

>  <vina_intra_gauss2>
139.65267867501353

>  <vina_intra_repulsion>
0.1547040636832504

>  <vina_intra_hydrophobic>
3.0489248859621085

>  <vina_intra_hydrogen>
0.0

>  <vina_num_rotors>
3.0

>  <rfscore_v3>
6.3010931198409486

>  <PLEClinear_p5_l1_s65536>
1.2045364994879137

>  <nnscore>
6.292636613575997

$$$$
CHEMBL1215474-700
 OpenBabel12202021053D

 24 27  0  0  0  0  0  0  0  0999 V2000
    2.1070   48.8450   64.2010 C   0  0  0  0  0  2  0  0  0  0  0  0
    0.6810   49.0840   63.9460 N   0  0  0  0  0  0  0  0  0  0  0  0
    0.2860   50.4540   63.6180 C   0  0  0  0  0  2  0  0  0  0  0  0
   -0.2670   51.3320   64.7730 C   0  0  0  0  0  2  0  0  0  0  0  0
   -1.2710   50.6480   65.6190 N   0  0  0  0  0  0  0  0  0  0  0  0
   -1.6180   51.4080   66.7740 C   0  0  0  0  0  0  0  0  0  0  0  0
   -2.7740   51.0850   67.5010 C   0  0  0  0  0  3  0  0  0  0  0  0
   -3.1220   51.8000   68.6530 C   0  0  0  0  0  3  0  0  0  0  0  0
   -2.2990   52.8360   69.0650 C   0  0  0  0  0  3  0  0  0  0  0  0
   -1.1950   53.1170   68.2810 C   0  0  0  0  0  3  0  0  0  0  0  0
   -0.8430   52.4390   67.1680 N   0  0  0  0  0  0  0  0  0  0  0  0
   -0.9270   49.2590   65.9850 C   0  0  0  0  0  2  0  0  0  0  0  0
   -0.3050   48.4410   64.8210 C   0  0  0  0  0  2  0  0  0  0  0  0
    3.5790   46.0980   63.2730 C   0  0  0  0  0  1  0  0  0  0  0  0
    3.4700   47.3820   62.5390 C   0  0  0  0  0  0  0  0  0  0  0  0
    4.0480   47.5200   61.3070 N   0  0  0  0  0  0  0  0  0  0  0  0
    3.8570   48.7840   60.8180 C   0  0  0  0  0  0  0  0  0  0  0  0
    4.2920   49.3270   59.5980 C   0  0  0  0  0  3  0  0  0  0  0  0
    4.0070   50.6630   59.3310 C   0  0  0  0  0  3  0  0  0  0  0  0
    3.3130   51.4220   60.2730 C   0  0  0  0  0  3  0  0  0  0  0  0
    2.8790   50.8600   61.4940 C   0  0  0  0  0  3  0  0  0  0  0  0
    3.1370   49.4970   61.7830 C   0  0  0  0  0  0  0  0  0  0  0  0
    2.8480   48.5840   62.8820 C   0  0  0  0  0  0  0  0  0  0  0  0
    4.5640   46.7990   60.8210 H   0  0  0  0  0  0  0  0  0  0  0  0
  2  1  1  0  0  0  0
  2 13  1  0  0  0  0
  3  2  1  0  0  0  0
  3  4  1  0  0  0  0
  4  5  1  0  0  0  0
  5 12  1  0  0  0  0
  5  6  1  0  0  0  0
  6 11  2  0  0  0  0
  6  7  1  0  0  0  0
  7  8  2  0  0  0  0
  8  9  1  0  0  0  0
 10  9  2  0  0  0  0
 11 10  1  0  0  0  0
 13 12  1  0  0  0  0
 15 23  2  0  0  0  0
 15 14  1  0  0  0  0
 16 15  1  0  0  0  0
 17 16  1  0  0  0  0
 17 22  1  0  0  0  0
 18 17  2  0  0  0  0
 19 18  1  0  0  0  0
 19 20  2  0  0  0  0
 20 21  1  0  0  0  0
 21 22  2  0  0  0  0
 22 23  1  0  0  0  0
 23  1  1  0  0  0  0
 24 16  1  0  0  0  0
M  END
>  <MODEL>
6

>  <REMARK>
 VINA RESULT:      -8.0      5.932      9.517
  Name = CHEMBL1215474-700
  3 active torsions:
  status: ('A' for Active; 'I' for Inactive)
    1  A    between atoms: C_1  and  C_2
    2  A    between atoms: C_10  and  C_11
    3  A    between atoms: C_11  and  N_12
                            x       y       z     vdW  Elec       q    Type
                         _______ _______ _______ _____ _____    ______ ____

>  <TORSDO>
F 2

>  <rfscore_v2>
6.508019115606614

>  <vina_affinity>
-7.558080414283469

>  <vina_gauss1>
75.69964199629442

>  <vina_gauss2>
1035.7497422631532

>  <vina_repulsion>
1.1177129833499637

>  <vina_hydrophobic>
50.826966035847235

>  <vina_hydrogen>
0.0

>  <vina_intra_gauss1>
14.581887462196477

>  <vina_intra_gauss2>
129.03251477631568

>  <vina_intra_repulsion>
0.5124263970278513

>  <vina_intra_hydrophobic>
3.049703050133232

>  <vina_intra_hydrogen>
0.0

>  <vina_num_rotors>
3.0

>  <rfscore_v3>
6.242234603840606

>  <PLEClinear_p5_l1_s65536>
1.5643425734086644

>  <nnscore>
6.574726948082253

$$$$
CHEMBL1215474-700
 OpenBabel12202021053D

 24 27  0  0  0  0  0  0  0  0999 V2000
   -3.0090   49.5630   65.8900 C   0  0  0  0  0  2  0  0  0  0  0  0
   -1.6800   49.2450   66.4260 N   0  0  0  0  0  0  0  0  0  0  0  0
   -0.7230   50.3490   66.5270 C   0  0  0  0  0  2  0  0  0  0  0  0
    0.3080   50.5040   65.3770 C   0  0  0  0  0  2  0  0  0  0  0  0
    0.9580   49.2350   64.9780 N   0  0  0  0  0  0  0  0  0  0  0  0
    1.7540   49.3770   63.8040 C   0  0  0  0  0  0  0  0  0  0  0  0
    2.6940   48.3890   63.4740 C   0  0  0  0  0  3  0  0  0  0  0  0
    3.4690   48.4940   62.3130 C   0  0  0  0  0  3  0  0  0  0  0  0
    3.2880   49.5940   61.4910 C   0  0  0  0  0  3  0  0  0  0  0  0
    2.3680   50.5420   61.8970 C   0  0  0  0  0  3  0  0  0  0  0  0
    1.6100   50.4590   63.0120 N   0  0  0  0  0  0  0  0  0  0  0  0
    0.0420   48.0830   64.8580 C   0  0  0  0  0  2  0  0  0  0  0  0
   -1.0230   48.0100   65.9870 C   0  0  0  0  0  2  0  0  0  0  0  0
   -3.7400   51.3660   68.4950 C   0  0  0  0  0  1  0  0  0  0  0  0
   -4.3560   50.0930   68.0490 C   0  0  0  0  0  0  0  0  0  0  0  0
   -5.3630   49.5240   68.7800 N   0  0  0  0  0  0  0  0  0  0  0  0
   -5.7700   48.3460   68.2150 C   0  0  0  0  0  0  0  0  0  0  0  0
   -6.7690   47.4620   68.6540 C   0  0  0  0  0  3  0  0  0  0  0  0
   -6.9810   46.2930   67.9270 C   0  0  0  0  0  3  0  0  0  0  0  0
   -6.2020   46.0290   66.8020 C   0  0  0  0  0  3  0  0  0  0  0  0
   -5.2040   46.9300   66.3710 C   0  0  0  0  0  3  0  0  0  0  0  0
   -4.9800   48.1370   67.0790 C   0  0  0  0  0  0  0  0  0  0  0  0
   -4.0900   49.2840   66.9430 C   0  0  0  0  0  0  0  0  0  0  0  0
   -5.7510   49.9050   69.6320 H   0  0  0  0  0  0  0  0  0  0  0  0
  1  2  1  0  0  0  0
  1 23  1  0  0  0  0
  2  3  1  0  0  0  0
  4  3  1  0  0  0  0
  5  4  1  0  0  0  0
  6  5  1  0  0  0  0
  7  6  1  0  0  0  0
  8  7  2  0  0  0  0
  9 10  2  0  0  0  0
  9  8  1  0  0  0  0
 10 11  1  0  0  0  0
 11  6  2  0  0  0  0
 12  5  1  0  0  0  0
 12 13  1  0  0  0  0
 13  2  1  0  0  0  0
 15 14  1  0  0  0  0
 15 16  1  0  0  0  0
 16 24  1  0  0  0  0
 17 18  1  0  0  0  0
 17 16  1  0  0  0  0
 19 18  2  0  0  0  0
 20 19  1  0  0  0  0
 21 20  2  0  0  0  0
 21 22  1  0  0  0  0
 22 17  2  0  0  0  0
 23 22  1  0  0  0  0
 23 15  2  0  0  0  0
M  END
>  <MODEL>
7

>  <REMARK>
 VINA RESULT:      -7.9      3.862      5.608
  Name = CHEMBL1215474-700
  3 active torsions:
  status: ('A' for Active; 'I' for Inactive)
    1  A    between atoms: C_1  and  C_2
    2  A    between atoms: C_10  and  C_11
    3  A    between atoms: C_11  and  N_12
                            x       y       z     vdW  Elec       q    Type
                         _______ _______ _______ _____ _____    ______ ____

>  <TORSDO>
F 2

>  <rfscore_v2>
6.534492507547999

>  <vina_affinity>
-7.5498466754359175

>  <vina_gauss1>
71.45795391754747

>  <vina_gauss2>
983.5957904044826

>  <vina_repulsion>
0.6905673333119112

>  <vina_hydrophobic>
40.59750409293052

>  <vina_hydrogen>
0.6996447961554437

>  <vina_intra_gauss1>
17.315434643811816

>  <vina_intra_gauss2>
128.07989407007904

>  <vina_intra_repulsion>
0.02316753247815783

>  <vina_intra_hydrophobic>
3.049270132577263

>  <vina_intra_hydrogen>
0.0

>  <vina_num_rotors>
3.0

>  <rfscore_v3>
6.276497966882787

>  <PLEClinear_p5_l1_s65536>
2.7772350975814937

>  <nnscore>
6.694567487438301

$$$$
CHEMBL1215474-700
 OpenBabel12202021053D

 24 27  0  0  0  0  0  0  0  0999 V2000
   -1.7710   49.2760   66.6030 C   0  0  0  0  0  2  0  0  0  0  0  0
   -1.9630   50.6850   66.2400 N   0  0  0  0  0  0  0  0  0  0  0  0
   -2.9600   50.9750   65.2080 C   0  0  0  0  0  2  0  0  0  0  0  0
   -2.4450   51.1700   63.7560 C   0  0  0  0  0  2  0  0  0  0  0  0
   -1.2610   52.0520   63.6530 N   0  0  0  0  0  0  0  0  0  0  0  0
   -0.7020   52.0620   62.3420 C   0  0  0  0  0  0  0  0  0  0  0  0
    0.1990   53.0730   61.9740 C   0  0  0  0  0  3  0  0  0  0  0  0
    0.7790   53.0900   60.7000 C   0  0  0  0  0  3  0  0  0  0  0  0
    0.4500   52.0840   59.8070 C   0  0  0  0  0  3  0  0  0  0  0  0
   -0.4680   51.1390   60.2290 C   0  0  0  0  0  3  0  0  0  0  0  0
   -1.0380   51.1060   61.4520 N   0  0  0  0  0  0  0  0  0  0  0  0
   -0.2170   51.8070   64.6690 C   0  0  0  0  0  2  0  0  0  0  0  0
   -0.7800   51.5390   66.0920 C   0  0  0  0  0  2  0  0  0  0  0  0
   -3.6400   50.3650   69.0310 C   0  0  0  0  0  1  0  0  0  0  0  0
   -2.3490   49.6390   69.1110 C   0  0  0  0  0  0  0  0  0  0  0  0
   -1.7930   49.3610   70.3300 N   0  0  0  0  0  0  0  0  0  0  0  0
   -0.5960   48.7140   70.1830 C   0  0  0  0  0  0  0  0  0  0  0  0
    0.2840   48.2610   71.1790 C   0  0  0  0  0  3  0  0  0  0  0  0
    1.4750   47.6570   70.7830 C   0  0  0  0  0  3  0  0  0  0  0  0
    1.7640   47.5260   69.4250 C   0  0  0  0  0  3  0  0  0  0  0  0
    0.8660   47.9830   68.4350 C   0  0  0  0  0  3  0  0  0  0  0  0
   -0.3620   48.5830   68.8090 C   0  0  0  0  0  0  0  0  0  0  0  0
   -1.5120   49.1430   68.1110 C   0  0  0  0  0  0  0  0  0  0  0  0
   -2.1940   49.6090   71.2240 H   0  0  0  0  0  0  0  0  0  0  0  0
  1 23  1  0  0  0  0
  2  1  1  0  0  0  0
  3  2  1  0  0  0  0
  4  3  1  0  0  0  0
  5  4  1  0  0  0  0
  5 12  1  0  0  0  0
  6  5  1  0  0  0  0
  7  6  1  0  0  0  0
  8  7  2  0  0  0  0
  9 10  2  0  0  0  0
  9  8  1  0  0  0  0
 10 11  1  0  0  0  0
 11  6  2  0  0  0  0
 12 13  1  0  0  0  0
 13  2  1  0  0  0  0
 14 15  1  0  0  0  0
 15 16  1  0  0  0  0
 16 24  1  0  0  0  0
 17 16  1  0  0  0  0
 17 18  1  0  0  0  0
 19 18  2  0  0  0  0
 20 19  1  0  0  0  0
 21 22  1  0  0  0  0
 21 20  2  0  0  0  0
 22 17  2  0  0  0  0
 23 22  1  0  0  0  0
 23 15  2  0  0  0  0
M  END
>  <MODEL>
8

>  <REMARK>
 VINA RESULT:      -7.9      4.596      6.740
  Name = CHEMBL1215474-700
  3 active torsions:
  status: ('A' for Active; 'I' for Inactive)
    1  A    between atoms: C_1  and  C_2
    2  A    between atoms: C_10  and  C_11
    3  A    between atoms: C_11  and  N_12
                            x       y       z     vdW  Elec       q    Type
                         _______ _______ _______ _____ _____    ______ ____

>  <TORSDO>
F 2

>  <rfscore_v2>
6.7623524479409465

>  <vina_affinity>
-7.369205914733823

>  <vina_gauss1>
64.98693971900698

>  <vina_gauss2>
986.2717050788536

>  <vina_repulsion>
0.5547155169755692

>  <vina_hydrophobic>
40.158310650466376

>  <vina_hydrogen>
0.5386862538231447

>  <vina_intra_gauss1>
17.411625237799615

>  <vina_intra_gauss2>
131.98657286577793

>  <vina_intra_repulsion>
0.3667792640895526

>  <vina_intra_hydrophobic>
3.0497633000195226

>  <vina_intra_hydrogen>
0.0

>  <vina_num_rotors>
3.0

>  <rfscore_v3>
6.284661600693424

>  <PLEClinear_p5_l1_s65536>
0.9604014053437525

>  <nnscore>
5.983611027580291

$$$$
CHEMBL1215474-700
 OpenBabel12202021053D

 24 27  0  0  0  0  0  0  0  0999 V2000
    0.2870   50.7020   63.9180 C   0  0  0  0  0  2  0  0  0  0  0  0
    0.4810   49.2800   64.2250 N   0  0  0  0  0  0  0  0  0  0  0  0
   -0.6570   48.5640   64.8030 C   0  0  0  0  0  2  0  0  0  0  0  0
   -0.6860   48.3990   66.3470 C   0  0  0  0  0  2  0  0  0  0  0  0
    0.6030   47.9600   66.9280 N   0  0  0  0  0  0  0  0  0  0  0  0
    0.6000   47.9990   68.3520 C   0  0  0  0  0  0  0  0  0  0  0  0
    1.5920   47.3160   69.0720 C   0  0  0  0  0  3  0  0  0  0  0  0
    1.6230   47.3590   70.4710 C   0  0  0  0  0  3  0  0  0  0  0  0
    0.6550   48.0950   71.1340 C   0  0  0  0  0  3  0  0  0  0  0  0
   -0.3080   48.7160   70.3610 C   0  0  0  0  0  3  0  0  0  0  0  0
   -0.3560   48.6860   69.0110 N   0  0  0  0  0  0  0  0  0  0  0  0
    1.7920   48.6490   66.3840 C   0  0  0  0  0  2  0  0  0  0  0  0
    1.7420   48.8620   64.8460 C   0  0  0  0  0  2  0  0  0  0  0  0
   -0.2530   53.1580   61.8560 C   0  0  0  0  0  1  0  0  0  0  0  0
    0.8540   52.1710   61.8500 C   0  0  0  0  0  0  0  0  0  0  0  0
    1.8110   52.2190   60.8730 N   0  0  0  0  0  0  0  0  0  0  0  0
    2.7200   51.2090   61.0310 C   0  0  0  0  0  0  0  0  0  0  0  0
    3.8450   50.9100   60.2450 C   0  0  0  0  0  3  0  0  0  0  0  0
    4.6090   49.7960   60.5820 C   0  0  0  0  0  3  0  0  0  0  0  0
    4.2390   49.0100   61.6730 C   0  0  0  0  0  3  0  0  0  0  0  0
    3.1080   49.3260   62.4560 C   0  0  0  0  0  3  0  0  0  0  0  0
    2.3230   50.4660   62.1490 C   0  0  0  0  0  0  0  0  0  0  0  0
    1.1390   51.1070   62.7070 C   0  0  0  0  0  0  0  0  0  0  0  0
    1.8440   52.8950   60.1220 H   0  0  0  0  0  0  0  0  0  0  0  0
  1  2  1  0  0  0  0
  2  3  1  0  0  0  0
  2 13  1  0  0  0  0
  3  4  1  0  0  0  0
  4  5  1  0  0  0  0
  5  6  1  0  0  0  0
  6 11  2  0  0  0  0
  6  7  1  0  0  0  0
  7  8  2  0  0  0  0
  8  9  1  0  0  0  0
 10  9  2  0  0  0  0
 11 10  1  0  0  0  0
 12  5  1  0  0  0  0
 13 12  1  0  0  0  0
 15 14  1  0  0  0  0
 15 23  2  0  0  0  0
 16 17  1  0  0  0  0
 16 15  1  0  0  0  0
 17 22  1  0  0  0  0
 18 19  1  0  0  0  0
 18 17  2  0  0  0  0
 19 20  2  0  0  0  0
 20 21  1  0  0  0  0
 22 21  2  0  0  0  0
 22 23  1  0  0  0  0
 23  1  1  0  0  0  0
 24 16  1  0  0  0  0
M  END
>  <MODEL>
9

>  <REMARK>
 VINA RESULT:      -7.9      5.838      9.968
  Name = CHEMBL1215474-700
  3 active torsions:
  status: ('A' for Active; 'I' for Inactive)
    1  A    between atoms: C_1  and  C_2
    2  A    between atoms: C_10  and  C_11
    3  A    between atoms: C_11  and  N_12
                            x       y       z     vdW  Elec       q    Type
                         _______ _______ _______ _____ _____    ______ ____

>  <TORSDO>
F 2

>  <rfscore_v2>
6.664901489343985

>  <vina_affinity>
-8.66755621545501

>  <vina_gauss1>
91.71339105026786

>  <vina_gauss2>
1017.0958253521418

>  <vina_repulsion>
0.4073287914795947

>  <vina_hydrophobic>
57.483114983009685

>  <vina_hydrogen>
0.0

>  <vina_intra_gauss1>
14.017789759956717

>  <vina_intra_gauss2>
134.55107292861535

>  <vina_intra_repulsion>
3.341883417144531

>  <vina_intra_hydrophobic>
3.0475319435028645

>  <vina_intra_hydrogen>
0.0

>  <vina_num_rotors>
3.0

>  <rfscore_v3>
6.2935187899877905

>  <PLEClinear_p5_l1_s65536>
1.705992914999547

>  <nnscore>
6.494339092084246

$$$$
